@<TRIPOS>MOLECULE
mol
37500 30000
SMALL
USER_CHARGES


@<TRIPOS>ATOM
1 C 120.31644297695496 29.725989090638336 57.01569735175431 C 0.0 **** -0.24
2 H 119.62881317380652 29.2844649644924 56.294674201777724 H 0.0 **** 0.06
3 H 120.86450181717433 28.934802092314555 57.5268678943782 H 0.0 **** 0.06
4 H 119.75312846886521 30.308119326850687 57.74479668866985 H 0.0 **** 0.06
5 H 121.01905895639669 30.3769657565135 56.495119892461474 H 0.0 **** 0.06
6 C 58.44114850172333 102.17878821707814 8.125837403213417 C 0.0 **** -0.24
7 H 57.54991869486979 101.55462733314079 8.064663037812036 H 0.0 **** 0.06
8 H 58.16596445773612 103.1733930825217 8.47850250905293 H 0.0 **** 0.06
9 H 58.89784483529958 102.25725145630392 7.138808664167502 H 0.0 **** 0.06
10 H 59.15157089493597 101.7300507678012 8.820686648473224 H 0.0 **** 0.06
11 C 42.63723487039397 87.63746133101074 122.1340577552856 C 0.0 **** -0.24
12 H 42.17262699655552 88.62161675365024 122.19199148779259 H 0.0 **** 0.06
13 H 42.18087381263118 87.06783115870348 121.32353641449214 H 0.0 **** 0.06
14 H 42.48892011356355 87.10974923614845 123.07620816052982 H 0.0 **** 0.06
15 H 43.70446833540578 87.75006880726812 121.94381585270139 H 0.0 **** 0.06
16 C 58.698763930948786 38.861078688263575 54.599479966509094 C 0.0 **** -0.24
17 H 58.731382626251076 38.25947949169071 55.5077597288644 H 0.0 **** 0.06
18 H 59.40648362028318 39.68586476674122 54.684135055214455 H 0.0 **** 0.06
19 H 57.69203893079171 39.25703639027333 54.462457959879316 H 0.0 **** 0.06
20 H 58.964550619253515 38.240311410106614 53.74348279176061 H 0.0 **** 0.06
21 C 26.39859980014083 55.00372739163534 44.674337713180165 C 0.0 **** -0.24
22 H 26.650445049947336 54.09319211872287 45.217754843867354 H 0.0 **** 0.06
23 H 26.99629607681439 55.83220767685691 45.05591253523545 H 0.0 **** 0.06
24 H 25.34065502636841 55.22625957328033 44.80917067993471 H 0.0 **** 0.06
25 H 26.608325469777583 54.86314740938842 43.61402214008207 H 0.0 **** 0.06
26 C 57.47755038324499 27.08545598907378 77.29738464570977 C 0.0 **** -0.24
27 H 58.16050113886905 27.53994672332925 76.5784032535479 H 0.0 **** 0.06
28 H 56.60687532465056 26.69240202681724 76.77197693744974 H 0.0 **** 0.06
29 H 57.158950855020976 27.83609926184444 78.01956027480753 H 0.0 **** 0.06
30 H 57.98669363715089 26.273978181197045 77.81648538005068 H 0.0 **** 0.06
31 C 97.39269347683134 54.790826075101336 120.34868611645486 C 0.0 **** -0.24
32 H 97.22046664823098 54.97061251238472 119.2871497283135 H 0.0 **** 0.06
33 H 98.46089866296633 54.845817542674126 120.55771556071714 H 0.0 **** 0.06
34 H 97.01959449943074 53.80222198321633 120.6149919090524 H 0.0 **** 0.06
35 H 96.8684270409343 55.54709021508722 120.93382286917308 H 0.0 **** 0.06
36 C 38.91953469579107 46.57744546038475 63.838283435622174 C 0.0 **** -0.24
37 H 38.74179358626998 45.78556393553214 63.11048162904336 H 0.0 **** 0.06
38 H 38.253704905572505 46.44336377392281 64.690805868664 H 0.0 **** 0.06
39 H 38.7275949231487 47.54585562280491 63.37529570674437 H 0.0 **** 0.06
40 H 39.95570001780227 46.534927217841016 64.17494850424666 H 0.0 **** 0.06
41 C 31.49569064833419 45.450356178096825 33.800180184116044 C 0.0 **** -0.24
42 H 31.52658878380491 45.747803342427886 32.75285640372935 H 0.0 **** 0.06
43 H 30.76695972987565 44.65015105256407 33.930854326169964 H 0.0 **** 0.06
44 H 31.210607036981372 46.30609244490245 34.412849366591715 H 0.0 **** 0.06
45 H 32.48090834628758 45.09775368814984 34.10604829642679 H 0.0 **** 0.06
46 C 123.38324124350957 64.23609156618772 38.17464446410082 C 0.0 **** -0.24
47 H 122.78854805227354 63.50126445732511 38.717791648807264 H 0.0 **** 0.06
48 H 123.06494472558288 64.26127080893028 37.132386315981904 H 0.0 **** 0.06
49 H 124.43628119719779 63.96026859879984 38.22715383110349 H 0.0 **** 0.06
50 H 123.24244505453464 65.21941310874402 38.62215404565694 H 0.0 **** 0.06
51 C 79.58476325011092 119.21060657662636 67.88559120006767 C 0.0 **** -0.24
52 H 80.46608264852237 119.84860531171296 67.95197224288341 H 0.0 **** 0.06
53 H 79.69230084404661 118.37133425157302 68.57227111351608 H 0.0 **** 0.06
54 H 79.48423186927029 118.83662255300507 66.86584849129818 H 0.0 **** 0.06
55 H 78.69830065565213 119.78721196614796 68.14988271045706 H 0.0 **** 0.06
56 C 97.00372941625245 19.858024534049633 92.6086871186066 C 0.0 **** -0.24
57 H 97.88718064748589 19.734116267364527 93.23599122143699 H 0.0 **** 0.06
58 H 97.19761761461125 20.62275427611877 91.85657243717012 H 0.0 **** 0.06
59 H 96.15965957947955 20.160953623037216 93.22770710810589 H 0.0 **** 0.06
60 H 96.77382234475802 18.912966634751186 92.11671048422576 H 0.0 **** 0.06
61 C 118.87434854754738 9.609536789746493 35.70064980223596 C 0.0 **** -0.24
62 H 119.81814090732917 9.088499708655167 35.53921542366382 H 0.0 **** 0.06
63 H 119.07401484330441 10.634311482528496 36.011371260580894 H 0.0 **** 0.06
64 H 118.30596018467932 9.09760281493778 36.47684240424376 H 0.0 **** 0.06
65 H 118.30070669008664 9.615081043278487 34.77345940976097 H 0.0 **** 0.06
66 C 97.22553001075863 118.8522450373808 6.16947436668023 C 0.0 **** -0.24
67 H 97.32389519351585 119.93743316718813 6.131556622027752 H 0.0 **** 0.06
68 H 96.49406983664846 118.58094496532412 6.931791938856424 H 0.0 **** 0.06
69 H 98.19022108182708 118.4085031128871 6.416028540913086 H 0.0 **** 0.06
70 H 96.89248245588192 118.48442582439047 5.199212528862656 H 0.0 **** 0.06
71 C 15.690520547211975 82.93117223533977 119.41176973354685 C 0.0 **** -0.24
72 H 14.788352249022012 83.13651851648818 119.988080395711 H 0.0 **** 0.06
73 H 16.22971615515354 82.10003545464124 119.86624135333106 H 0.0 **** 0.06
74 H 16.326128747316204 83.81647587389945 119.4035007613872 H 0.0 **** 0.06
75 H 15.416863220372761 82.67069769400804 118.38943447677035 H 0.0 **** 0.06
76 C 87.37705374936363 16.852896916193572 58.04559248619516 C 0.0 **** -0.24
77 H 86.44053845580353 16.77041582636457 58.59837703125338 H 0.0 **** 0.06
78 H 88.20602066267398 16.557184971493882 58.68840583035423 H 0.0 **** 0.06
79 H 87.51760625631192 17.884675893044175 57.72176398068437 H 0.0 **** 0.06
80 H 87.34192331385836 16.199915468566644 57.17348595987643 H 0.0 **** 0.06
81 C 23.001144461555896 89.16283975219471 26.033266209785495 C 0.0 **** -0.24
82 H 22.03483395014321 89.5587242508285 25.717873968982133 H 0.0 **** 0.06
83 H 23.089549470974518 89.24045410263852 27.116637449679615 H 0.0 **** 0.06
84 H 23.798652633292917 89.73547623766183 25.55987643941637 H 0.0 **** 0.06
85 H 23.078866274759065 88.11712866463535 25.735411619182514 H 0.0 **** 0.06
86 C 110.58891268189426 4.814161637594452 75.0493831317419 C 0.0 **** -0.24
87 H 111.33410844186342 4.926260840639856 75.83649603278687 H 0.0 **** 0.06
88 H 109.6713674617804 5.324777357333858 75.3430957545805 H 0.0 **** 0.06
89 H 110.38273436948968 3.754881613049335 74.8939448012067 H 0.0 **** 0.06
90 H 110.96818153188025 5.249400267210177 74.12482746515367 H 0.0 **** 0.06
91 C 67.12796591243654 119.88185471797513 38.03017552180157 C 0.0 **** -0.24
92 H 67.27961333290841 119.92712973173414 36.95162234651323 H 0.0 **** 0.06
93 H 66.06055155406199 119.93358959829689 38.24914560740979 H 0.0 **** 0.06
94 H 67.63716076920846 120.720626813195 38.50409813217868 H 0.0 **** 0.06
95 H 67.5321525116766 118.94634527539887 38.41535070101841 H 0.0 **** 0.06
96 C 49.40235242508512 16.171657278631045 63.484709593827446 C 0.0 **** -0.24
97 H 48.50332094789305 15.80540091776524 63.98201078465307 H 0.0 **** 0.06
98 H 50.178489078062064 15.407569829059724 63.52992000102961 H 0.0 **** 0.06
99 H 49.751120640601194 17.07545814819136 63.98456801434985 H 0.0 **** 0.06
100 H 49.17352953464989 16.397389903649156 62.4436219297247 H 0.0 **** 0.06
101 C 27.962321994964782 57.10634817641642 91.87147055687967 C 0.0 **** -0.24
102 H 28.046632192866667 58.155163158607195 92.15407376076087 H 0.0 **** 0.06
103 H 26.93836920346422 56.76838916410708 92.02933463701186 H 0.0 **** 0.06
104 H 28.640948296426785 56.51051170334682 92.48271601080324 H 0.0 **** 0.06
105 H 28.22541124283626 56.99211597819527 90.82004640786857 H 0.0 **** 0.06
106 C 53.03529618944826 50.10863036514982 122.73850603319755 C 0.0 **** -0.24
107 H 53.838395991249755 50.83045901950314 122.89135523034439 H 0.0 **** 0.06
108 H 52.128919345637016 50.464996019592476 123.2280336086188 H 0.0 **** 0.06
109 H 53.325178903117504 49.14840302115479 123.16280434774092 H 0.0 **** 0.06
110 H 52.850279279692444 49.9924974332707 121.67006667811623 H 0.0 **** 0.06
111 C 96.38115519096115 86.18318987122925 61.68935049268728 C 0.0 **** -0.24
112 H 96.06926560582136 87.14145272332973 62.10514240863225 H 0.0 **** 0.06
113 H 96.23373146497022 85.40047037791695 62.43354949358863 H 0.0 **** 0.06
114 H 97.4351148150501 86.23139151434347 61.416009301176956 H 0.0 **** 0.06
115 H 95.78496766697975 85.95982882602542 60.80427477940785 H 0.0 **** 0.06
116 C 69.57913166572044 4.8167437229845405 0.4808112125512025 C 0.0 **** -0.24
117 H 68.61235530358587 4.961752113888508 0.9627922632211892 H 0.0 **** 0.06
118 H 70.17233809505633 5.727458270340662 0.5751084249153564 H 0.0 **** 0.06
119 H 69.42799229802746 4.589702566695877 -0.5744342105145108 H 0.0 **** 0.06
120 H 70.10408405601866 3.990409347275488 0.9591219329980163 H 0.0 **** 0.06
121 C 15.581705982880862 48.19844772893646 47.356986290995025 C 0.0 **** -0.24
122 H 15.588702798560263 48.939261789557804 46.55733493594164 H 0.0 **** 0.06
123 H 14.85239382142015 47.421468859399965 47.125708607210754 H 0.0 **** 0.06
124 H 15.312407400132201 48.68115814100929 48.296900481215346 H 0.0 **** 0.06
125 H 16.572003779227373 47.75215331639083 47.448453695243245 H 0.0 **** 0.06
126 C 16.16160899124725 59.86742436215246 1.2073640299242445 C 0.0 **** -0.24
127 H 15.154440957026765 60.27242099193279 1.3084680167760183 H 0.0 **** 0.06
128 H 16.19970517276289 58.873708174143246 1.6545447183917439 H 0.0 **** 0.06
129 H 16.869678857088758 60.52202345207229 1.7150753440519004 H 0.0 **** 0.06
130 H 16.421102309755923 59.80037521059046 0.1502034902331424 H 0.0 **** 0.06
131 C 65.71920465843208 94.31407793712194 47.424951699923156 C 0.0 **** -0.24
132 H 65.13918986155562 95.05719362033719 47.9724283095679 H 0.0 **** 0.06
133 H 66.00392779728917 94.71952510255154 46.45384405456065 H 0.0 **** 0.06
134 H 65.11715573335059 93.41654487039371 47.28216090922015 H 0.0 **** 0.06
135 H 66.6160242742538 94.06373617881684 47.991878769085076 H 0.0 **** 0.06
136 C 75.36619511279164 86.37483733524165 98.50014058699821 C 0.0 **** -0.24
137 H 75.99950985092416 87.09004973341854 99.02335878462048 H 0.0 **** 0.06
138 H 75.37687659492182 86.59336390232819 97.43149104304732 H 0.0 **** 0.06
139 H 74.34614983245606 86.44867056918368 98.87623226255559 H 0.0 **** 0.06
140 H 75.74293396189793 85.36604025889423 98.66774125368798 H 0.0 **** 0.06
141 C 35.83785228416616 46.85618462864332 99.14953755765592 C 0.0 **** -0.24
142 H 36.760240761479764 47.43442791673672 99.09539973860547 H 0.0 **** 0.06
143 H 36.068624972242276 45.79470091170484 99.05462158961319 H 0.0 **** 0.06
144 H 35.1718561231049 47.15772990252216 98.34218313006176 H 0.0 **** 0.06
145 H 35.351652350917846 47.03803124344839 100.10860022647137 H 0.0 **** 0.06
146 C 73.50888047262949 96.293780227994 105.44038643246344 C 0.0 **** -0.24
147 H 74.4727538648106 96.61898506578993 105.04940359190783 H 0.0 **** 0.06
148 H 73.48875184571399 95.20455116622247 105.49519235372395 H 0.0 **** 0.06
149 H 72.713562357984 96.63908440030653 104.78041083371502 H 0.0 **** 0.06
150 H 73.36218616157419 96.71078185036319 106.43632372472582 H 0.0 **** 0.06
151 C 45.43346342922746 94.00362272113503 78.27855710046376 C 0.0 **** -0.24
152 H 45.96003940476999 94.94158661533561 78.45181738810342 H 0.0 **** 0.06
153 H 44.38892747227072 94.2116234881259 78.04273911852388 H 0.0 **** 0.06
154 H 45.48731307843002 93.38569217712484 79.17494472474759 H 0.0 **** 0.06
155 H 45.89585329653289 93.47572264366067 77.44457819150556 H 0.0 **** 0.06
156 C 109.82904160748586 121.44700466619702 114.79713537245561 C 0.0 **** -0.24
157 H 108.86876320524271 121.14802744195264 115.21621014541438 H 0.0 **** 0.06
158 H 109.69440949743426 121.74385627998856 113.75657251011715 H 0.0 **** 0.06
159 H 110.52531630267077 120.61017291148502 114.85007740448376 H 0.0 **** 0.06
160 H 110.2270524625406 122.28714320264213 115.36614442449849 H 0.0 **** 0.06
161 C 47.66509032469227 11.526270409613321 69.94857489510889 C 0.0 **** -0.24
162 H 47.94003105228785 11.782105647052482 70.97107602056394 H 0.0 **** 0.06
163 H 46.713383672922276 11.996398917054258 69.6990966576397 H 0.0 **** 0.06
164 H 47.571211377320566 10.443713931983698 69.85855843632834 H 0.0 **** 0.06
165 H 48.43596038227713 11.881505686109257 69.26451643708336 H 0.0 **** 0.06
166 C 107.60535852290035 8.290160706436637 0.034152992563903695 C 0.0 **** -0.24
167 H 106.70506528800271 8.367919484491182 -0.5763864710833673 H 0.0 **** 0.06
168 H 108.21394735294302 9.184521083203634 -0.10346938343586487 H 0.0 **** 0.06
169 H 108.17482144036376 7.412491626860913 -0.26859868803686027 H 0.0 **** 0.06
170 H 107.3256413847501 8.198241119287928 1.0831271400503795 H 0.0 **** 0.06
171 C 75.5605015979638 112.61561664106273 52.604318854300544 C 0.0 **** -0.24
172 H 75.51345635986587 111.73745404174679 51.96036629440019 H 0.0 **** 0.06
173 H 74.84206958430252 112.50955609118574 53.41726923297401 H 0.0 **** 0.06
174 H 75.32237671981608 113.50615740920102 52.02281530350953 H 0.0 **** 0.06
175 H 76.56486861885338 112.70918999694373 53.01800913793966 H 0.0 **** 0.06
176 C 16.642361253104696 66.48113158612614 19.206215833865496 C 0.0 **** -0.24
177 H 17.212794837112966 67.31457737645373 19.617650412330377 H 0.0 **** 0.06
178 H 15.651298774776706 66.46050272726904 19.659858136146227 H 0.0 **** 0.06
179 H 17.159499360161135 65.54635525382358 19.42263000235248 H 0.0 **** 0.06
180 H 16.54709978026591 66.60340353919227 18.128093189798307 H 0.0 **** 0.06
181 C 67.53626198137165 9.380822005512417 18.105309945971047 C 0.0 **** -0.24
182 H 67.8723702561115 8.454621287005413 18.573090071584875 H 0.0 **** 0.06
183 H 66.99294908202191 9.980481583023021 18.835975547373053 H 0.0 **** 0.06
184 H 66.88036057548753 9.146619876032688 17.267085994665766 H 0.0 **** 0.06
185 H 68.3999514275742 9.939666105839844 17.746114351032297 H 0.0 **** 0.06
186 C 87.51676992935353 0.637469332181567 96.21479096633183 C 0.0 **** -0.24
187 H 86.78690419498096 1.027985938479361 96.92486530562404 H 0.0 **** 0.06
188 H 87.12075792648804 0.7259566670976341 95.20248208900433 H 0.0 **** 0.06
189 H 87.7148456079224 -0.4105078469854675 96.43677180534596 H 0.0 **** 0.06
190 H 88.44227945388394 1.2072289618041907 96.2946894230314 H 0.0 **** 0.06
191 C 101.26640628419443 94.99027798401782 84.75400833013518 C 0.0 **** -0.24
192 H 102.13792222639012 95.15888340924174 84.12179170845317 H 0.0 **** 0.06
193 H 101.11983293413516 95.85216371056413 85.40625908212454 H 0.0 **** 0.06
194 H 101.42306562580458 94.09746339912216 85.35927080989262 H 0.0 **** 0.06
195 H 100.38407855164402 94.85468448770366 84.12764665909577 H 0.0 **** 0.06
196 C 85.91241782204065 58.58440323223928 109.04803235780827 C 0.0 **** -0.24
197 H 84.97821214758125 58.9674729306183 108.63659693588934 H 0.0 **** 0.06
198 H 86.63879160744034 58.459607941350356 108.2441113167334 H 0.0 **** 0.06
199 H 85.72988879177444 57.620807979102864 109.52583687538639 H 0.0 **** 0.06
200 H 86.30020599763307 59.287199209559475 109.78458091877556 H 0.0 **** 0.06
201 C 109.49736141098968 2.3850983697058297 37.96819270724153 C 0.0 **** -0.24
202 H 109.95804027708789 3.3715654787313127 38.019635161579224 H 0.0 **** 0.06
203 H 108.60954309530966 2.4317742166612533 37.337483015174385 H 0.0 **** 0.06
204 H 109.21488944754505 2.0633821518897264 38.970596304725575 H 0.0 **** 0.06
205 H 110.208070533961 1.674559356816701 37.54497218122599 H 0.0 **** 0.06
206 C 94.53986949759931 81.15008300813142 97.76964365520288 C 0.0 **** -0.24
207 H 93.70647389382313 81.01772997534383 98.46020226540227 H 0.0 **** 0.06
208 H 94.26157623919184 81.86676924923054 96.99770626092604 H 0.0 **** 0.06
209 H 94.78320911394846 80.19310036505115 97.30741991064534 H 0.0 **** 0.06
210 H 95.40720956833894 81.52060968778164 98.3159804430505 H 0.0 **** 0.06
211 C 95.35603006682152 120.15342198230114 43.31638293998165 C 0.0 **** -0.24
212 H 95.51240745976571 120.43408291194301 44.358039442742694 H 0.0 **** 0.06
213 H 94.31434790086206 119.8693699135732 43.16963365505373 H 0.0 **** 0.06
214 H 96.00173597052361 119.31174268804463 43.066205901934296 H 0.0 **** 0.06
215 H 95.59650760518838 120.99895809733017 42.67175828215849 H 0.0 **** 0.06
216 C 12.113761399096404 71.54716920860822 71.55723243337897 C 0.0 **** -0.24
217 H 11.090942360514646 71.66377463932858 71.91498943998792 H 0.0 **** 0.06
218 H 12.210090555836757 70.59563679188756 71.03418992137247 H 0.0 **** 0.06
219 H 12.799743768258224 71.56849673233071 72.40465032841854 H 0.0 **** 0.06
220 H 12.354748960660345 72.36315103549025 70.87479310122902 H 0.0 **** 0.06
221 C 64.13375637507784 44.26379225222445 50.245041536999466 C 0.0 **** -0.24
222 H 64.40354430417455 44.77379925407175 49.32036319897672 H 0.0 **** 0.06
223 H 64.11976804901542 44.982470820914614 51.06490871540384 H 0.0 **** 0.06
224 H 64.86626162792659 43.48463020741096 50.45697382513592 H 0.0 **** 0.06
225 H 63.14671977286811 43.81480681858531 50.13760088262089 H 0.0 **** 0.06
226 C 15.521769751172428 110.48390768235683 118.1932388327769 C 0.0 **** -0.24
227 H 15.355075031175403 111.09044300857326 117.30358472879715 H 0.0 **** 0.06
228 H 16.2380548452021 109.69442799649809 117.9656334744787 H 0.0 **** 0.06
229 H 14.578522725416633 110.03938985001881 118.51068434171236 H 0.0 **** 0.06
230 H 15.91418932786138 111.11203871940572 118.99290312355868 H 0.0 **** 0.06
231 C 11.585609601536024 119.65937428424124 54.05991260073688 C 0.0 **** -0.24
232 H 10.956407681498654 118.98732138946917 54.64365446865514 H 0.0 **** 0.06
233 H 11.806819020285374 119.20215498957535 53.09531442822316 H 0.0 **** 0.06
234 H 12.516313833358819 119.84342383979262 54.59658764315506 H 0.0 **** 0.06
235 H 11.062534512872215 120.60326408745762 53.904396584770325 H 0.0 **** 0.06
236 C 121.92023563563022 107.52283369044149 29.678989308941055 C 0.0 **** -0.24
237 H 122.0891788749891 108.28541353962453 28.920287303103066 H 0.0 **** 0.06
238 H 122.86669815894214 107.27148801360481 30.159189087994946 H 0.0 **** 0.06
239 H 121.50126231365478 106.6312658853868 29.212014006892247 H 0.0 **** 0.06
240 H 121.22295529762177 107.90208104791418 30.426492028629866 H 0.0 **** 0.06
241 C 106.55732767267571 16.39824893027361 0.7854636630150935 C 0.0 **** -0.24
242 H 105.9032759546563 15.557189948228515 1.0172240726237476 H 0.0 **** 0.06
243 H 106.57572326425651 17.08762964263213 1.6309846093660667 H 0.0 **** 0.06
244 H 106.1845453075112 16.915322910038107 -0.09756657769241883 H 0.0 **** 0.06
245 H 107.56562471274927 16.031456461641767 0.5946809490862393 H 0.0 **** 0.06
246 C 29.945684157740118 37.08133697986926 1.7569251367777952 C 0.0 **** -0.24
247 H 29.081385121524022 36.4171227320665 1.7563585936747614 H 0.0 **** 0.06
248 H 30.854481801567886 36.494616830109976 1.8913908297900832 H 0.0 **** 0.06
249 H 29.85140977234971 37.79953820244373 2.570650510623736 H 0.0 **** 0.06
250 H 29.994570232085778 37.6138827779144 0.8064416271366781 H 0.0 **** 0.06
251 C 66.94648276803346 73.81012780309453 74.6455188003115 C 0.0 **** -0.24
252 H 66.55928954086497 74.04422422819545 73.65437707436139 H 0.0 **** 0.06
253 H 66.17266750789403 73.99530228242304 75.39038190963316 H 0.0 **** 0.06
254 H 67.81168954199376 74.4406506587234 74.85529721582742 H 0.0 **** 0.06
255 H 67.24366575507455 72.76233778827236 74.68174077533763 H 0.0 **** 0.06
256 C 25.18557293402263 62.47471059813938 110.67316732289747 C 0.0 **** -0.24
257 H 25.60139684169065 62.308531638519185 111.66618880231584 H 0.0 **** 0.06
258 H 24.946823370149545 61.51522393032093 110.21421558779596 H 0.0 **** 0.06
259 H 25.914679718356773 63.00125349802374 110.05757852984667 H 0.0 **** 0.06
260 H 24.278544572567114 63.074239318572836 110.75434370693105 H 0.0 **** 0.06
261 C 108.15858903722852 99.76046128553087 122.81014424614398 C 0.0 **** -0.24
262 H 107.32717563504917 99.08893767550778 122.59698590706063 H 0.0 **** 0.06
263 H 109.09965570580118 99.22973674577716 122.66891518401854 H 0.0 **** 0.06
264 H 108.08899610560115 100.10980996511 123.83942065908326 H 0.0 **** 0.06
265 H 108.11776098637887 100.61418556561887 122.13308023501088 H 0.0 **** 0.06
266 C 82.18458432224261 32.27998918589323 39.92502493981539 C 0.0 **** -0.24
267 H 81.2679413360558 31.696445994427684 40.013860270220306 H 0.0 **** 0.06
268 H 82.34963982323242 32.53899677783128 38.87902088879032 H 0.0 **** 0.06
269 H 83.02535487138746 31.69198937658269 40.29170294680321 H 0.0 **** 0.06
270 H 82.09373311805132 33.19177166925919 40.51632226726858 H 0.0 **** 0.06
271 C 37.69867550452892 110.02468961260672 27.933979549734858 C 0.0 **** -0.24
272 H 36.95216187770586 109.64310777849963 28.630371251514504 H 0.0 **** 0.06
273 H 38.124231407981256 110.9474609408702 28.328559030080072 H 0.0 **** 0.06
274 H 37.22807729579418 110.22415293807671 26.97120157975715 H 0.0 **** 0.06
275 H 38.48806126894743 109.28427480669728 27.806270062509668 H 0.0 **** 0.06
276 C 110.51788008926212 89.08147314317551 120.26360233191005 C 0.0 **** -0.24
277 H 109.47891887636223 89.18043582346382 120.57630768036279 H 0.0 **** 0.06
278 H 110.77930316084513 88.02545658290549 120.1992075696711 H 0.0 **** 0.06
279 H 111.16428376424608 89.57272988791127 120.99081743211923 H 0.0 **** 0.06
280 H 110.64867542175588 89.54861517175291 119.28703914318004 H 0.0 **** 0.06
281 C 51.58845191614816 45.50374051143697 61.24180500680406 C 0.0 **** -0.24
282 H 51.70524124734089 46.568671361569805 61.4437611038602 H 0.0 **** 0.06
283 H 50.615576304037816 45.17055910588807 61.602959948845 H 0.0 **** 0.06
284 H 52.37651121003671 44.94873000955832 61.751943874413485 H 0.0 **** 0.06
285 H 51.65839000728852 45.32797936613492 60.16792911173283 H 0.0 **** 0.06
286 C 96.1716714438813 55.31130296964851 54.74923192978443 C 0.0 **** -0.24
287 H 96.43748395474148 55.05024607593437 53.725293128350245 H 0.0 **** 0.06
288 H 96.87383208558273 56.05462045997942 55.12856334260093 H 0.0 **** 0.06
289 H 96.21442684995472 54.41805127061072 55.37386556683711 H 0.0 **** 0.06
290 H 95.16255206613423 55.72138658931982 54.76997198835306 H 0.0 **** 0.06
291 C 57.978195962796946 48.33076583985553 98.88484486932833 C 0.0 **** -0.24
292 H 57.72792292603381 48.00481506792909 97.8751908602593 H 0.0 **** 0.06
293 H 57.97103563147439 49.420397989773676 98.92627271310994 H 0.0 **** 0.06
294 H 58.97051296435373 47.96308400523213 99.14836300820724 H 0.0 **** 0.06
295 H 57.24453898128516 47.93491623484863 99.58664198871406 H 0.0 **** 0.06
296 C 40.78011178150325 101.73319621631255 112.75133761748162 C 0.0 **** -0.24
297 H 40.43436832494542 102.76255257216982 112.65859258431527 H 0.0 **** 0.06
298 H 41.61456026071327 101.69233785104335 113.45117332488752 H 0.0 **** 0.06
299 H 41.10573137500422 101.37034554026529 111.77606944222958 H 0.0 **** 0.06
300 H 39.96646469839449 101.10773668708315 113.11880396501266 H 0.0 **** 0.06
301 C 26.372056827054337 0.10304399772317119 13.789184097560934 C 0.0 **** -0.24
302 H 26.305058514607822 -0.6057465248127407 12.962461019050217 H 0.0 **** 0.06
303 H 26.05769156621824 1.0893835299864243 13.446930454944663 H 0.0 **** 0.06
304 H 27.402014374905605 0.15133162213657414 14.142978491807316 H 0.0 **** 0.06
305 H 25.72328302510698 -0.2237395021163202 14.60075092196011 H 0.0 **** 0.06
306 C 87.33099252487415 17.755530873707073 74.12388678954869 C 0.0 **** -0.24
307 H 88.21595893645178 18.093997430867233 74.66155255729697 H 0.0 **** 0.06
308 H 87.4612171276396 17.940484363173226 73.05684248167424 H 0.0 **** 0.06
309 H 86.45715403814225 18.298459058810238 74.48255646117201 H 0.0 **** 0.06
310 H 87.18943921349711 16.687657031717492 74.29222234218466 H 0.0 **** 0.06
311 C 94.92982165602574 26.419784380573446 35.33232274768119 C 0.0 **** -0.24
312 H 94.867035043149 27.456278763854414 35.6650298073362 H 0.0 **** 0.06
313 H 95.26699558771053 26.39200203821764 34.29558813782247 H 0.0 **** 0.06
314 H 93.94750046300999 25.95412566943736 35.40807045326673 H 0.0 **** 0.06
315 H 95.63853623613372 25.879578071975118 35.96006831591981 H 0.0 **** 0.06
316 C 44.62438707582101 36.313352559405615 92.80710605027471 C 0.0 **** -0.24
317 H 43.685342904688135 36.31074184818708 92.25439555384085 H 0.0 **** 0.06
318 H 44.73131688780597 35.37241851077987 93.34636833458953 H 0.0 **** 0.06
319 H 44.6257802221354 37.14161133472271 93.51627049638475 H 0.0 **** 0.06
320 H 45.455307333208495 36.43086579508747 92.1113885207736 H 0.0 **** 0.06
321 C 12.209358938765249 45.55159458661337 81.08530374010839 C 0.0 **** -0.24
322 H 13.169059369405744 45.11516847749613 81.36181239021656 H 0.0 **** 0.06
323 H 11.929435222438208 45.20955866558103 80.08777731324896 H 0.0 **** 0.06
324 H 12.28961559401207 46.637960644863014 81.08818218647609 H 0.0 **** 0.06
325 H 11.449524191116215 45.24096725266769 81.80184786177612 H 0.0 **** 0.06
326 C 40.51285404781849 80.96574361824241 31.383981486283062 C 0.0 **** -0.24
327 H 39.53788847558106 80.97287269279155 30.89748382680507 H 0.0 **** 0.06
328 H 41.20222427495358 81.6005504171599 30.82574155724523 H 0.0 **** 0.06
329 H 40.89761926598414 79.94664562275798 31.41119672054259 H 0.0 **** 0.06
330 H 40.413615138328886 81.34407073276162 32.40230267324437 H 0.0 **** 0.06
331 C 87.5388617484805 33.50386173587634 53.63915892237995 C 0.0 **** -0.24
332 H 87.64067511385133 32.42141148774169 53.716697329834886 H 0.0 **** 0.06
333 H 88.09670163104137 33.86017409702785 52.773544205622585 H 0.0 **** 0.06
334 H 87.93108644132835 33.970527441711454 54.543181962902224 H 0.0 **** 0.06
335 H 86.48509994759071 33.76193043661368 53.52507814840422 H 0.0 **** 0.06
336 C 84.79799616312289 52.11436821623829 50.477830190776416 C 0.0 **** -0.24
337 H 85.45037725938636 51.248934969917514 50.59936609159903 H 0.0 **** 0.06
338 H 84.3813020665126 52.11635016781361 49.469834707621985 H 0.0 **** 0.06
339 H 85.37184681274522 53.026933069464235 50.63623940071844 H 0.0 **** 0.06
340 H 83.9888711551151 52.06306883886634 51.20565210950079 H 0.0 **** 0.06
341 C 101.23113246178963 96.77192878119666 101.5731917028121 C 0.0 **** -0.24
342 H 100.94908848927301 95.93199285280375 100.93761197602487 H 0.0 **** 0.06
343 H 100.94866594064874 97.70630644340952 101.08699440059723 H 0.0 **** 0.06
344 H 102.30839523777647 96.75793765292178 101.73611444627363 H 0.0 **** 0.06
345 H 100.7180926106204 96.69114371508232 102.53070228171129 H 0.0 **** 0.06
346 C 113.34678553434736 3.3443374429650436 110.59084526767077 C 0.0 **** -0.24
347 H 112.623669003506 3.7148266506676038 109.86388587049726 H 0.0 **** 0.06
348 H 114.21582302961423 4.002267221825484 110.60557470608654 H 0.0 **** 0.06
349 H 113.6570000370101 2.3376169824637714 110.31235911115556 H 0.0 **** 0.06
350 H 112.88778634530416 3.323838469100723 111.58002488869448 H 0.0 **** 0.06
351 C 95.79586470627237 100.5363699923656 66.07404498194079 C 0.0 **** -0.24
352 H 94.82301031267936 100.08116357255852 65.8889338213688 H 0.0 **** 0.06
353 H 95.78707342785147 101.02761739598046 67.0479995548444 H 0.0 **** 0.06
354 H 96.00599811050259 101.27214605178696 65.29757652333501 H 0.0 **** 0.06
355 H 96.5651119891514 99.76529491860234 66.0622354010432 H 0.0 **** 0.06
356 C 66.77866002809907 101.33514549101297 101.6943062155392 C 0.0 **** -0.24
357 H 67.75838531394687 101.04025057375371 101.31985594912618 H 0.0 **** 0.06
358 H 66.10605570985545 101.50625017113154 100.85408999240752 H 0.0 **** 0.06
359 H 66.87277119586233 102.25193454351593 102.2772699258515 H 0.0 **** 0.06
360 H 66.37696521834165 100.5430329512157 102.32603139243622 H 0.0 **** 0.06
361 C 101.40450892628968 97.90683672202042 9.15834542528745 C 0.0 **** -0.24
362 H 102.21310201060146 97.19164197531765 9.01063505327474 H 0.0 **** 0.06
363 H 101.6822095299749 98.61172388801423 9.941339747932886 H 0.0 **** 0.06
364 H 100.49885952739692 97.37632124975971 9.451427627297534 H 0.0 **** 0.06
365 H 101.22384229971351 98.44746515142438 8.228578654940776 H 0.0 **** 0.06
366 C 47.50451032731527 89.56340783037928 26.74048724733521 C 0.0 **** -0.24
367 H 46.96699364349578 89.06451740481683 27.5474853368016 H 0.0 **** 0.06
368 H 46.837365919837254 89.69896608994247 25.889895721491627 H 0.0 **** 0.06
369 H 48.357780244769316 88.95386370389923 26.440865516191025 H 0.0 **** 0.06
370 H 47.856796288283476 90.53535481812284 27.085784738187044 H 0.0 **** 0.06
371 C 104.6460450605407 46.71729680020428 87.13264691871 C 0.0 **** -0.24
372 H 105.63822062487891 46.55546199670619 86.71137521140238 H 0.0 **** 0.06
373 H 104.56663985129485 46.1965488199555 88.08709863574015 H 0.0 **** 0.06
374 H 103.89245527064679 46.33415194976652 86.44392040580165 H 0.0 **** 0.06
375 H 104.48718570623679 47.785154731852785 87.28636064114862 H 0.0 **** 0.06
376 C 85.63789480196891 28.39430430597654 77.34378289767757 C 0.0 **** -0.24
377 H 84.81892778756196 28.536452044420976 78.04850321586954 H 0.0 **** 0.06
378 H 85.57554181850867 27.395568682077858 76.91111444405972 H 0.0 **** 0.06
379 H 86.58816993855373 28.505657904001886 77.8656327124198 H 0.0 **** 0.06
380 H 85.56855959719752 29.139003582424003 76.55113398341976 H 0.0 **** 0.06
381 C 39.49135834129973 104.82988583112882 43.473084447019545 C 0.0 **** -0.24
382 H 39.55517173313899 105.1461605028374 44.51363373594299 H 0.0 **** 0.06
383 H 40.46850316982622 104.93632215866847 43.00080480784459 H 0.0 **** 0.06
384 H 38.764481167340904 105.45097098050707 42.9484440131217 H 0.0 **** 0.06
385 H 39.17733144909468 103.78708399543365 43.428450982014084 H 0.0 **** 0.06
386 C 77.06367744867383 51.406126773689174 36.02652300008353 C 0.0 **** -0.24
387 H 78.11529308793016 51.22879504874864 35.80248353196109 H 0.0 **** 0.06
388 H 76.93071754943377 51.48836311775996 37.10424116306501 H 0.0 **** 0.06
389 H 76.46751540542806 50.57511514198707 35.64773510884035 H 0.0 **** 0.06
390 H 76.74192562956353 52.331283355230994 35.54768920141353 H 0.0 **** 0.06
391 C 87.26946428759345 114.12181736271353 30.14233011436778 C 0.0 **** -0.24
392 H 86.21649969340592 113.89348460329592 30.31264604617394 H 0.0 **** 0.06
393 H 87.7713985561079 114.25371558291006 31.101438876107636 H 0.0 **** 0.06
394 H 87.35241331227962 115.0378844992204 29.558921957229245 H 0.0 **** 0.06
395 H 87.73517495739623 113.29954477832193 29.598639849891242 H 0.0 **** 0.06
396 C 65.1238286036957 113.40217333696495 43.65656422997523 C 0.0 **** -0.24
397 H 64.2779458154132 113.71816237654855 44.26763294812736 H 0.0 **** 0.06
398 H 64.7747956972567 113.15572473399016 42.653735814946174 H 0.0 **** 0.06
399 H 65.58866673744046 112.5248626577125 44.10545301667503 H 0.0 **** 0.06
400 H 65.85304630380347 114.21027175486009 43.599826284516666 H 0.0 **** 0.06
401 C 28.937215011709043 88.65823475553755 44.353829676398874 C 0.0 **** -0.24
402 H 29.4352645975149 89.21604028098697 43.560895060861554 H 0.0 **** 0.06
403 H 29.26632150800691 87.61943575340311 44.32870496183463 H 0.0 **** 0.06
404 H 27.858682979893047 88.70245526138307 44.20609392636092 H 0.0 **** 0.06
405 H 29.189959802382475 89.09698595285083 45.320086509918866 H 0.0 **** 0.06
406 C 55.28232640860762 113.09301438237051 63.396820060084536 C 0.0 **** -0.24
407 H 55.31399192490858 114.00650007789841 62.80349059525523 H 0.0 **** 0.06
408 H 56.157610436295045 113.05211513430943 64.04669615471576 H 0.0 **** 0.06
409 H 55.2827683520116 112.22932525424662 62.732769957760155 H 0.0 **** 0.06
410 H 54.377157239225085 113.08513379018943 64.00449053645596 H 0.0 **** 0.06
411 C 10.121419262481282 19.685447085806743 57.27030833306031 C 0.0 **** -0.24
412 H 9.474193923002815 20.088090405752666 56.491453148199554 H 0.0 **** 0.06
413 H 9.637078219404941 19.80029759194747 58.239890103516785 H 0.0 **** 0.06
414 H 11.068643380991347 20.225312917377664 57.27000548329502 H 0.0 **** 0.06
415 H 10.305972880454618 18.628514051210516 57.07821921944932 H 0.0 **** 0.06
416 C 39.589528743263045 33.39133944478283 72.60554388992563 C 0.0 **** -0.24
417 H 39.05318931919898 32.61518721418503 73.15027903182835 H 0.0 **** 0.06
418 H 40.662084053985055 33.24772264149436 72.7314087331876 H 0.0 **** 0.06
419 H 39.305616921644024 34.36948820171915 72.993884975306 H 0.0 **** 0.06
420 H 39.336507544633534 33.333576899096045 71.54692664825387 H 0.0 **** 0.06
421 C 25.877664883497204 101.1497340130007 15.863212055047864 C 0.0 **** -0.24
422 H 26.207600484720217 101.89485450841016 16.58727397609602 H 0.0 **** 0.06
423 H 24.86579267886961 100.82822820455395 16.10983192875742 H 0.0 **** 0.06
424 H 26.549172393858726 100.29216379568922 15.893816779813896 H 0.0 **** 0.06
425 H 25.887608505131823 101.5851254575828 14.863569535507569 H 0.0 **** 0.06
426 C 4.156494637061286 41.59379846617341 19.463404258026884 C 0.0 **** -0.24
427 H 4.079065241192609 42.676801219134916 19.3671003840806 H 0.0 **** 0.06
428 H 4.929824876956445 41.22376404470262 18.789323668676786 H 0.0 **** 0.06
429 H 3.2012531478941924 41.137638466459805 19.205215543515948 H 0.0 **** 0.06
430 H 4.416513520969133 41.338831746211866 20.48994055412811 H 0.0 **** 0.06
431 C 102.70101341532063 46.86165439660775 77.17754065832148 C 0.0 **** -0.24
432 H 103.10627799216407 47.79307395007166 76.78332764979984 H 0.0 **** 0.06
433 H 102.45866875986944 46.98974895137755 78.23305694043805 H 0.0 **** 0.06
434 H 103.44089256774593 46.068334322399295 77.06837180496669 H 0.0 **** 0.06
435 H 101.79847585980102 46.59665241790432 76.62753013403733 H 0.0 **** 0.06
436 C 97.62215962568118 97.09715064146343 0.34934840379346177 C 0.0 **** -0.24
437 H 97.66356186446367 97.11567236901533 1.4382342964879964 H 0.0 **** 0.06
438 H 96.79752252852936 97.7226338014772 0.005750897093060203 H 0.0 **** 0.06
439 H 97.46694633623817 96.07252834001336 0.009965528671060042 H 0.0 **** 0.06
440 H 98.56047533903367 97.4758539720939 -0.05599234083830673 H 0.0 **** 0.06
441 C 83.98364236158314 81.19242616865489 43.16101090168499 C 0.0 **** -0.24
442 H 85.0388180448176 81.45241507884356 43.23875209955773 H 0.0 **** 0.06
443 H 83.40074494911792 81.84139211482153 43.81614647771474 H 0.0 **** 0.06
444 H 83.84257230219356 80.15347094386073 43.458952147620295 H 0.0 **** 0.06
445 H 83.65102304781514 81.32285888797128 42.13109953704037 H 0.0 **** 0.06
446 C 66.17016616963589 109.57679869750628 95.12346772542057 C 0.0 **** -0.24
447 H 65.20769069120253 109.8063933142901 95.58015684014038 H 0.0 **** 0.06
448 H 66.85142298583061 110.41545057581216 95.26995638571779 H 0.0 **** 0.06
449 H 66.03320555065106 109.40109336904509 94.05615419591604 H 0.0 **** 0.06
450 H 66.58856915478056 108.68350396710865 95.58822166420529 H 0.0 **** 0.06
451 C 4.554161234988044 63.978882632079106 46.33324710367387 C 0.0 **** -0.24
452 H 3.808127357174328 64.63690977438979 45.88671772512825 H 0.0 **** 0.06
453 H 4.053324893482966 63.162518761822255 46.85436296166566 H 0.0 **** 0.06
454 H 5.1611875350432115 64.5441426864752 47.03944592461821 H 0.0 **** 0.06
455 H 5.192801800124727 63.57197097640899 45.54906290644081 H 0.0 **** 0.06
456 C 37.63207376590819 34.66292494584593 63.20321355555146 C 0.0 **** -0.24
457 H 37.26579599364196 35.68756003118244 63.268850858190234 H 0.0 **** 0.06
458 H 37.732261292697615 34.37966822467456 62.154983691601146 H 0.0 **** 0.06
459 H 36.92723784308332 33.99270270200259 63.69456896288379 H 0.0 **** 0.06
460 H 38.60309015885116 34.59294692421349 63.69367350283966 H 0.0 **** 0.06
461 C 16.675819418198586 13.655197442158276 25.289250225507402 C 0.0 **** -0.24
462 H 16.596333201036643 14.63165614544707 24.81302342284775 H 0.0 **** 0.06
463 H 15.928855236360022 13.574629658370817 26.079185709382955 H 0.0 **** 0.06
464 H 17.67159967616918 13.54010927204224 25.717864412309098 H 0.0 **** 0.06
465 H 16.50698365289469 12.87452727828176 24.547786628201607 H 0.0 **** 0.06
466 C 51.3677574979078 10.327673047221339 6.243831195897428 C 0.0 **** -0.24
467 H 51.64781868261551 9.31640030851301 6.539929024668197 H 0.0 **** 0.06
468 H 51.641310316400535 10.490155962144826 5.2012627956877395 H 0.0 **** 0.06
469 H 51.891138899234306 11.047516664254488 6.87339755604188 H 0.0 **** 0.06
470 H 50.2919676644708 10.456103244308366 6.362804381361514 H 0.0 **** 0.06
471 C 11.580735776957553 117.52636972587031 84.60449955783687 C 0.0 **** -0.24
472 H 12.620551860600273 117.21024237394495 84.6892151341368 H 0.0 **** 0.06
473 H 11.52428698833188 118.4280333159553 83.99439544526857 H 0.0 **** 0.06
474 H 11.181873222638657 117.7327352587552 85.59689391093453 H 0.0 **** 0.06
475 H 10.997685859218635 116.73343777405596 84.13581369949586 H 0.0 **** 0.06
476 C 109.743120180689 55.04815104908988 123.48815573519752 C 0.0 **** -0.24
477 H 109.66530578031978 54.144074918075205 122.88447290331567 H 0.0 **** 0.06
478 H 110.32613267662924 54.83705223750161 124.38525076343896 H 0.0 **** 0.06
479 H 108.74471784136216 55.3813741483047 123.77372168420237 H 0.0 **** 0.06
480 H 110.23585663447824 55.8298296542643 122.91001816526091 H 0.0 **** 0.06
481 C 32.97244862637773 106.66695489657171 54.22129551585783 C 0.0 **** -0.24
482 H 33.8907463035454 106.0794473833457 54.20237351424754 H 0.0 **** 0.06
483 H 32.11394174981975 105.99582210089852 54.261188761746354 H 0.0 **** 0.06
484 H 32.914532913549145 107.27965391545841 53.32187160640402 H 0.0 **** 0.06
485 H 32.971837001303946 107.31000395594702 55.10076761901158 H 0.0 **** 0.06
486 C 69.64549831661753 19.617498099692295 76.23312453667123 C 0.0 **** -0.24
487 H 70.24258531381466 20.34218887694815 75.67955511590019 H 0.0 **** 0.06
488 H 68.95116610432191 20.14354844385184 76.88738630090967 H 0.0 **** 0.06
489 H 70.30281427292286 18.986893471699283 76.83060271113591 H 0.0 **** 0.06
490 H 69.08685660320396 18.99711155570184 75.53197141180192 H 0.0 **** 0.06
491 C 49.1987300376382 105.48509742366527 20.730050548678577 C 0.0 **** -0.24
492 H 49.399982921573155 105.56249337329751 21.79829950207059 H 0.0 **** 0.06
493 H 48.98505277263598 106.47669116488746 20.328248723206855 H 0.0 **** 0.06
494 H 48.338760688273794 104.83427350018837 20.568304732557806 H 0.0 **** 0.06
495 H 50.06990493887196 105.06905182366461 20.22520899628921 H 0.0 **** 0.06
496 C 1.8468981346694022 108.44836176649005 113.4673429927427 C 0.0 **** -0.24
497 H 0.995786138083048 108.5297853069278 112.79104180273663 H 0.0 **** 0.06
498 H 1.5296395971548264 107.96976885309917 114.39364776521712 H 0.0 **** 0.06
499 H 2.2336371847665504 109.44340069939585 113.68596390208084 H 0.0 **** 0.06
500 H 2.62836756609218 107.85020157528565 112.9977754600782 H 0.0 **** 0.06
501 C 92.32889936940012 44.44856671229445 52.296866890935945 C 0.0 **** -0.24
502 H 91.83789440221409 44.16929965091947 51.36495288872325 H 0.0 **** 0.06
503 H 92.69805468031721 43.552477696028745 52.79543035038091 H 0.0 **** 0.06
504 H 91.61540514726012 44.958142964021135 52.945060371547214 H 0.0 **** 0.06
505 H 93.16417383938642 45.115270746034525 52.081648352254575 H 0.0 **** 0.06
506 C 109.62459043977965 93.18869970571437 85.5068667469697 C 0.0 **** -0.24
507 H 109.82653260723312 93.25327728278003 84.4376484303009 H 0.0 **** 0.06
508 H 110.25776777044405 92.419862520743 85.95014271098313 H 0.0 **** 0.06
509 H 108.5772036624297 92.93177162710528 85.66369334725334 H 0.0 **** 0.06
510 H 109.83743250895006 94.1498290156366 85.97516625040635 H 0.0 **** 0.06
511 C 97.4242745820893 47.05506009023338 47.43460653227434 C 0.0 **** -0.24
512 H 97.91691158708325 46.17518351776772 47.84929526516948 H 0.0 **** 0.06
513 H 97.88620773200047 47.31585908020912 46.48189019956389 H 0.0 **** 0.06
514 H 97.52675989531166 47.88862630439286 48.12865031827589 H 0.0 **** 0.06
515 H 96.36744626380234 46.839264070293666 47.279079473994116 H 0.0 **** 0.06
516 C 48.589359155957936 58.439541203233716 110.29273791217219 C 0.0 **** -0.24
517 H 48.636391855956504 58.05565220597285 111.31172999291101 H 0.0 **** 0.06
518 H 48.52410578962804 59.528107128532184 110.31848723725096 H 0.0 **** 0.06
519 H 47.710038475531746 58.034303185843356 109.79192456919748 H 0.0 **** 0.06
520 H 49.48691403165054 58.142682401360645 109.7503406459499 H 0.0 **** 0.06
521 C 74.62124938929057 10.460424767325264 0.3354893766450573 C 0.0 **** -0.24
522 H 75.69676372306773 10.36091175589354 0.48304886238111067 H 0.0 **** 0.06
523 H 74.35310442322381 11.51648414492152 0.3201747614273245 H 0.0 **** 0.06
524 H 74.09555918362588 9.963651566501056 1.1519922812818209 H 0.0 **** 0.06
525 H 74.340748925253 9.999226625776075 -0.6108960699082786 H 0.0 **** 0.06
526 C 4.456827320500786 53.08210937558809 98.2596188107799 C 0.0 **** -0.24
527 H 4.980506045801196 53.33029172051715 97.3366481707892 H 0.0 **** 0.06
528 H 3.557447588379869 52.51279879923047 98.02450334646284 H 0.0 **** 0.06
529 H 4.180285586661075 53.99994962278993 98.77847491602014 H 0.0 **** 0.06
530 H 5.10774168184145 52.48588121509951 98.89881139734729 H 0.0 **** 0.06
531 C 22.903505924247384 118.61922690987188 32.175757768323734 C 0.0 **** -0.24
532 H 22.33560214540347 117.70652289241467 31.997036341420795 H 0.0 **** 0.06
533 H 22.944903714092078 119.20628389605248 31.257893364519788 H 0.0 **** 0.06
534 H 23.914921171785437 118.3626147584362 32.49015573897256 H 0.0 **** 0.06
535 H 22.41642101124191 119.20197376731548 32.95811583154676 H 0.0 **** 0.06
536 C 53.02431500500836 115.94426322009426 28.49810773856069 C 0.0 **** -0.24
537 H 53.494803552144674 115.27136781723229 27.781048450465164 H 0.0 **** 0.06
538 H 52.94469136966279 115.44602252335287 29.465126910065607 H 0.0 **** 0.06
539 H 52.02812511074063 116.21208997081882 28.14483832676052 H 0.0 **** 0.06
540 H 53.628221259061974 116.84499169921551 28.600845599593242 H 0.0 **** 0.06
541 C 93.4352948457156 113.17980345857251 66.70664556623366 C 0.0 **** -0.24
542 H 93.85289979688332 112.30521667398448 66.20844005040937 H 0.0 **** 0.06
543 H 93.04668645889518 112.8911731028631 67.6836495514779 H 0.0 **** 0.06
544 H 92.62724133808905 113.59016698183217 66.10058942678447 H 0.0 **** 0.06
545 H 94.21360746119825 113.93236140979992 66.83158831086386 H 0.0 **** 0.06
546 C 94.92894580243896 40.63344997770277 18.98272878326071 C 0.0 **** -0.24
547 H 95.912535700607 40.28214049425699 19.29313693206899 H 0.0 **** 0.06
548 H 94.27945296321424 39.77733041904106 18.79838916314594 H 0.0 **** 0.06
549 H 95.02514930943764 41.221000792429386 18.069496254357603 H 0.0 **** 0.06
550 H 94.49954842753198 41.25304439913631 19.770214891778494 H 0.0 **** 0.06
551 C 101.49752532705023 108.05624124289074 120.02854271790034 C 0.0 **** -0.24
552 H 101.54715870093985 109.1391746623367 119.91800580970346 H 0.0 **** 0.06
553 H 102.44479817615891 107.61579215128933 119.71678724302515 H 0.0 **** 0.06
554 H 100.69252805957895 107.66421690671146 119.40668015822592 H 0.0 **** 0.06
555 H 101.30630043958132 107.80575214910922 121.07196878645863 H 0.0 **** 0.06
556 C 122.74377043321647 82.69627154737519 40.09889525199208 C 0.0 **** -0.24
557 H 123.21932712160567 81.78588923221564 39.73520921157184 H 0.0 **** 0.06
558 H 122.53648566407736 82.59800041194302 41.163840998072004 H 0.0 **** 0.06
559 H 121.81004041764805 82.85791676358184 39.559008354671654 H 0.0 **** 0.06
560 H 123.41008645169234 83.54408851219907 39.93476374699289 H 0.0 **** 0.06
561 C 56.44361605599954 123.4941082074267 52.73518083626175 C 0.0 **** -0.24
562 H 55.9469380984369 124.46285846615089 52.6794703459673 H 0.0 **** 0.06
563 H 57.103322366457434 123.47296830565645 53.60285209749007 H 0.0 **** 0.06
564 H 57.028533633847246 123.33336494373826 51.83018930204513 H 0.0 **** 0.06
565 H 55.69473103298279 122.70699979602539 52.82845639513721 H 0.0 **** 0.06
566 C 15.530663156942424 80.12590259539407 27.373865165223947 C 0.0 **** -0.24
567 H 14.457064776550737 80.21886951726607 27.21475421621858 H 0.0 **** 0.06
568 H 15.857353559941728 80.87521582321969 28.096205718252506 H 0.0 **** 0.06
569 H 16.051994156148467 80.28026081558318 26.42950072259969 H 0.0 **** 0.06
570 H 15.757113023746129 79.12975702354888 27.75599766248368 H 0.0 **** 0.06
571 C 96.84386668770736 38.385190728440534 53.36879070258418 C 0.0 **** -0.24
572 H 96.02294584511347 38.5087836361115 52.66290725904615 H 0.0 **** 0.06
573 H 97.63233154838109 39.10145242888552 53.13716155757042 H 0.0 **** 0.06
574 H 97.23846414073675 37.371913692510475 53.29477586912445 H 0.0 **** 0.06
575 H 96.48100221390966 38.55980885762574 54.38206392912737 H 0.0 **** 0.06
576 C 108.99219601258544 5.712697926546639 17.2773105719792 C 0.0 **** -0.24
577 H 109.99459523127807 5.42079008232281 16.96633911081895 H 0.0 **** 0.06
578 H 108.63859020240844 6.529498578067091 16.646958756691134 H 0.0 **** 0.06
579 H 109.01528828246411 6.040043675772779 18.31736455337594 H 0.0 **** 0.06
580 H 108.31966484597287 4.860770686341539 17.17979910218358 H 0.0 **** 0.06
581 C 40.71570832390714 110.98266963324598 115.48135108942722 C 0.0 **** -0.24
582 H 41.767417331321866 111.2551150717042 115.57457341748648 H 0.0 **** 0.06
583 H 40.26459092314488 110.93424282778119 116.47225856411501 H 0.0 **** 0.06
584 H 40.63451538352294 110.0103222882302 114.9959924297537 H 0.0 **** 0.06
585 H 40.19870031356578 111.73145790814164 114.88230812297752 H 0.0 **** 0.06
586 C 54.97105466366267 3.4278827292719143 67.461278604925 C 0.0 **** -0.24
587 H 55.049592915915966 2.528732444536331 68.07309987106066 H 0.0 **** 0.06
588 H 55.64809371981008 4.18953309301196 67.84531953133205 H 0.0 **** 0.06
589 H 53.94675232098369 3.8002545970628034 67.49386163184133 H 0.0 **** 0.06
590 H 55.23746714901087 3.1892305257733824 66.43166595118488 H 0.0 **** 0.06
591 C 27.687555818582453 0.28611359041039464 98.93424316486328 C 0.0 **** -0.24
592 H 28.101820253688658 1.1664363609937425 98.44157535697076 H 0.0 **** 0.06
593 H 27.057195190389976 -0.2595982337435174 98.23294242323398 H 0.0 **** 0.06
594 H 27.093315764181803 0.5965043950056668 99.79334093672048 H 0.0 **** 0.06
595 H 28.50088608193063 -0.3587107564538883 99.26918379522715 H 0.0 **** 0.06
596 C 80.86219914917197 30.66718127781533 75.24256572263937 C 0.0 **** -0.24
597 H 79.78220070970522 30.664905223228082 75.39106123157336 H 0.0 **** 0.06
598 H 81.18660265210838 31.667742560908998 74.95503791005959 H 0.0 **** 0.06
599 H 81.12152371489393 29.960196474982546 74.45415656779193 H 0.0 **** 0.06
600 H 81.3566476263365 30.37589309312218 76.16871071600471 H 0.0 **** 0.06
601 C 115.01410528414675 57.38752695290515 36.625511108592995 C 0.0 **** -0.24
602 H 114.55431817774428 57.348440331340214 37.61349026315936 H 0.0 **** 0.06
603 H 116.07435994680486 57.149006375184 36.708827880478914 H 0.0 **** 0.06
604 H 114.89843476296977 58.389037860579975 36.21124798585508 H 0.0 **** 0.06
605 H 114.52865492124039 56.66456388896026 35.97039888262977 H 0.0 **** 0.06
606 C 59.545656146238784 121.21138999237412 50.13600568110476 C 0.0 **** -0.24
607 H 59.70949527816312 120.15582854550817 49.917162077074124 H 0.0 **** 0.06
608 H 60.30614198293526 121.80856438293625 49.634256070472674 H 0.0 **** 0.06
609 H 59.608233769315305 121.37181472570245 51.212220177236816 H 0.0 **** 0.06
610 H 58.55778898320456 121.5063511958825 49.78141564836332 H 0.0 **** 0.06
611 C 9.92133086709272 119.9253956478257 20.00567224861274 C 0.0 **** -0.24
612 H 9.351978936146953 119.18992900780327 19.43840437459781 H 0.0 **** 0.06
613 H 10.743366395289836 120.29883732478257 19.395344803861832 H 0.0 **** 0.06
614 H 10.321505086119274 119.45832675354654 20.906907555846175 H 0.0 **** 0.06
615 H 9.269654167957935 120.7522612020519 20.285294244067586 H 0.0 **** 0.06
616 C 45.649286862837414 30.80450465862353 90.90981621005889 C 0.0 **** -0.24
617 H 45.20464999487166 31.59306807658652 91.51590979458814 H 0.0 **** 0.06
618 H 46.53255829357215 31.191994288202807 90.4012671774926 H 0.0 **** 0.06
619 H 44.92448753993841 30.463113725086444 90.16969732603596 H 0.0 **** 0.06
620 H 45.93378405989455 29.97014083211596 91.55093090994382 H 0.0 **** 0.06
621 C 70.0302507133585 26.436099411520928 51.183583278470564 C 0.0 **** -0.24
622 H 69.60687331825255 25.96416743735196 52.069240326386705 H 0.0 **** 0.06
623 H 69.61097664219125 25.972848334305837 50.289732358407036 H 0.0 **** 0.06
624 H 71.11265421063757 26.306811259551353 51.18622175434578 H 0.0 **** 0.06
625 H 69.7915832716742 27.499850373302593 51.18799627422074 H 0.0 **** 0.06
626 C 117.34506883924703 83.6879724166759 110.06770781889892 C 0.0 **** -0.24
627 H 116.77455581655778 84.58510875460672 109.82863679068939 H 0.0 **** 0.06
628 H 118.1584616341319 83.94551340531228 110.74688420774422 H 0.0 **** 0.06
629 H 117.75768904879577 83.2649150613529 109.15121406422153 H 0.0 **** 0.06
630 H 116.6913274749919 82.95763351521708 110.5429708479002 H 0.0 **** 0.06
631 C 0.42960584460632845 94.1011009611114 101.39162031707957 C 0.0 **** -0.24
632 H -0.24438084710649832 93.87480811815175 102.218097309288 H 0.0 **** 0.06
633 H -0.029088825766251603 93.7843525278578 100.45357102521152 H 0.0 **** 0.06
634 H 1.3700140010442396 93.56876380328846 101.53356166339185 H 0.0 **** 0.06
635 H 0.6192047905029767 95.17338878356676 101.36070595726571 H 0.0 **** 0.06
636 C 36.11788697089255 11.080208358976027 62.85795036894592 C 0.0 **** -0.24
637 H 36.79887534484312 11.920029298779774 62.992647368265466 H 0.0 **** 0.06
638 H 35.68991478807701 10.801922397861741 63.82114373200449 H 0.0 **** 0.06
639 H 36.66347684875757 10.232895194272054 62.443239908717715 H 0.0 **** 0.06
640 H 35.318266250831165 11.36779051804001 62.173924043391736 H 0.0 **** 0.06
641 C 64.23231362617986 120.62009553634067 57.429723631636364 C 0.0 **** -0.24
642 H 64.50748195653381 121.0607925625653 56.47104418775565 H 0.0 **** 0.06
643 H 63.19344945177642 120.86033306775798 57.654845459799944 H 0.0 **** 0.06
644 H 64.87711351135732 121.02079044963875 58.21166569026835 H 0.0 **** 0.06
645 H 64.3533782635746 119.53751461723971 57.37949743345186 H 0.0 **** 0.06
646 C 67.83245467926645 45.893466595637065 75.59703558835042 C 0.0 **** -0.24
647 H 67.50516712950699 46.88083611026765 75.92319202939541 H 0.0 **** 0.06
648 H 68.28552559551406 45.96840684927705 74.608542085451 H 0.0 **** 0.06
649 H 66.97486192783387 45.22200173987411 75.55438198632442 H 0.0 **** 0.06
650 H 68.5646380091091 45.501559508471935 76.30367917833462 H 0.0 **** 0.06
651 C 62.69272073634514 77.0619484457409 106.07191495309662 C 0.0 **** -0.24
652 H 61.783477539825725 76.85438273911198 105.50764728650181 H 0.0 **** 0.06
653 H 62.817159063511596 76.30714389205072 106.8485711910828 H 0.0 **** 0.06
654 H 62.61970439916105 78.04735935835197 106.53024950945726 H 0.0 **** 0.06
655 H 63.550226667121066 77.03597237761555 105.39889298089356 H 0.0 **** 0.06
656 C 121.06925640782896 107.72613112628366 24.01096877637417 C 0.0 **** -0.24
657 H 120.35710029588141 107.52426227442237 24.81142638004539 H 0.0 **** 0.06
658 H 121.12654590688797 108.8014892259315 23.837724258271095 H 0.0 **** 0.06
659 H 120.74101658354421 107.22800306428007 23.098740869037783 H 0.0 **** 0.06
660 H 122.05236284500214 107.35076994050064 24.295983598142413 H 0.0 **** 0.06
661 C 9.80471833361246 14.326586729834418 17.111401134099978 C 0.0 **** -0.24
662 H 9.59291805306125 14.072145807787592 18.150233748795088 H 0.0 **** 0.06
663 H 9.649303726694061 15.396058621721949 16.960507070650223 H 0.0 **** 0.06
664 H 9.13700641449648 13.76633639290921 16.456951704511027 H 0.0 **** 0.06
665 H 10.838809705317168 14.073546063341695 16.87942028534637 H 0.0 **** 0.06
666 C 49.42794497372367 113.16965026674657 55.73287152725197 C 0.0 **** -0.24
667 H 49.675150544508824 112.8663440301978 56.75064236876787 H 0.0 **** 0.06
668 H 49.37975263621894 114.25765947372346 55.67977525356588 H 0.0 **** 0.06
669 H 48.46206087305981 112.74877245958898 55.45355901107092 H 0.0 **** 0.06
670 H 50.19487533671497 112.80603746231047 55.04890642629883 H 0.0 **** 0.06
671 C 79.24832632763747 101.41448642379953 104.61184376267869 C 0.0 **** -0.24
672 H 79.02272679783783 100.87854605283025 105.53373663781531 H 0.0 **** 0.06
673 H 78.74293901088706 102.37984876088638 104.61958247308843 H 0.0 **** 0.06
674 H 78.90328390073714 100.83059731780119 103.75811723644189 H 0.0 **** 0.06
675 H 80.32469022903013 101.568383711573 104.5351881393544 H 0.0 **** 0.06
676 C 40.88669890229886 94.32682755677783 56.637310776568285 C 0.0 **** -0.24
677 H 40.397514919713785 93.81659623909331 55.80739164990413 H 0.0 **** 0.06
678 H 40.26353055662662 95.15520839240898 56.97326326496315 H 0.0 **** 0.06
679 H 41.854241421185804 94.70862798983957 56.30993841504281 H 0.0 **** 0.06
680 H 41.032891758941616 93.62512104795384 57.45869396913028 H 0.0 **** 0.06
681 C 102.2536661706014 25.398678965507635 36.83467186360764 C 0.0 **** -0.24
682 H 102.25008408693327 24.33825090801384 37.08756162324627 H 0.0 **** 0.06
683 H 103.2455240387427 25.81244528617951 37.02001795768152 H 0.0 **** 0.06
684 H 101.52118482543608 25.921278619938533 37.45011512152453 H 0.0 **** 0.06
685 H 101.99890230568997 25.522508144944048 35.7819328476516 H 0.0 **** 0.06
686 C 107.5606401862745 82.97429451175361 101.09550611923564 C 0.0 **** -0.24
687 H 107.43032876840081 84.05074072161963 100.98196658492671 H 0.0 **** 0.06
688 H 108.22819506408146 82.6051851228431 100.31608420579195 H 0.0 **** 0.06
689 H 106.59358427073997 82.47925264623112 101.00931393452888 H 0.0 **** 0.06
690 H 107.99245499766118 82.76215402907454 102.07367640150542 H 0.0 **** 0.06
691 C 39.79620650424306 84.7682162698789 52.60988653765065 C 0.0 **** -0.24
692 H 40.46767413068511 85.59088277772156 52.36323542548652 H 0.0 **** 0.06
693 H 40.35676489859935 83.83389817458993 52.62555988745625 H 0.0 **** 0.06
694 H 39.00609619506224 84.70666038598807 51.86071009294156 H 0.0 **** 0.06
695 H 39.35291994235533 84.94300875519605 53.59082098079665 H 0.0 **** 0.06
696 C 72.43053975369742 6.274698276738064 105.11419181793184 C 0.0 **** -0.24
697 H 73.08137986670124 6.700991799199841 105.87734754704377 H 0.0 **** 0.06
698 H 73.02153954652545 5.654598454465855 104.43955101904201 H 0.0 **** 0.06
699 H 71.95770858081653 7.0782374537166675 104.55051361206763 H 0.0 **** 0.06
700 H 71.6640225557021 5.664080260534973 105.59108983236975 H 0.0 **** 0.06
701 C 94.79477257783248 89.4387967704836 32.958988949823436 C 0.0 **** -0.24
702 H 95.07079420888122 88.62817686726751 33.63230244333607 H 0.0 **** 0.06
703 H 95.681162409572 90.02266107004434 32.7094588053036 H 0.0 **** 0.06
704 H 94.06213864628252 90.08214567563934 33.4462582947757 H 0.0 **** 0.06
705 H 94.36444218949961 89.0234421928873 32.04753623166721 H 0.0 **** 0.06
706 C 40.25865657671358 10.109272120865217 105.71293640285455 C 0.0 **** -0.24
707 H 39.286664852756644 10.24487109758881 105.23732019110716 H 0.0 **** 0.06
708 H 40.17639750670867 9.357436722207495 106.49778395541858 H 0.0 **** 0.06
709 H 40.5839607624373 11.05518563806848 106.147452893082 H 0.0 **** 0.06
710 H 40.98448096063021 9.781393825739695 104.96931791801495 H 0.0 **** 0.06
711 C 84.10211697109833 62.97921011111845 20.416917750519076 C 0.0 **** -0.24
712 H 83.10097789156248 63.28637084551319 20.720083640791245 H 0.0 **** 0.06
713 H 84.0385354356942 62.385151612550004 19.504705248903292 H 0.0 **** 0.06
714 H 84.55332969476171 62.38117486505055 21.209244500522516 H 0.0 **** 0.06
715 H 84.71389837470235 63.861539252365205 20.234127145117498 H 0.0 **** 0.06
716 C 108.25540747124327 13.280918565805436 10.165212855782556 C 0.0 **** -0.24
717 H 107.73180351309712 12.814824574626186 10.999677938247771 H 0.0 **** 0.06
718 H 109.15242302371337 12.705578287333836 9.932035942819198 H 0.0 **** 0.06
719 H 108.53711494570133 14.29818610299452 10.435489228270285 H 0.0 **** 0.06
720 H 107.60173131426906 13.303801192132923 9.29312938080676 H 0.0 **** 0.06
721 C 33.07909362686 19.3328223651003 32.34277364890538 C 0.0 **** -0.24
722 H 32.73365598013646 18.341494909513102 32.63720437019367 H 0.0 **** 0.06
723 H 32.241112821205604 19.906230832718705 31.944928617078716 H 0.0 **** 0.06
724 H 33.85035925540973 19.235955730862628 31.57731822723892 H 0.0 **** 0.06
725 H 33.49258158314586 19.845894555295928 33.211112494884844 H 0.0 **** 0.06
726 C 99.48580074796178 25.40873714353333 98.32586559553863 C 0.0 **** -0.24
727 H 98.87534370875659 24.729403539144755 98.92130391835046 H 0.0 **** 0.06
728 H 100.39270203926736 25.65927770046349 98.8774671359841 H 0.0 **** 0.06
729 H 98.92179257170142 26.318859873211977 98.12078970325028 H 0.0 **** 0.06
730 H 99.75372460583702 24.927172396168544 97.38557952592848 H 0.0 **** 0.06
731 C 13.782771758928476 110.74813421840896 34.04816867054494 C 0.0 **** -0.24
732 H 14.695617790077563 110.39438317937686 34.52806247784736 H 0.0 **** 0.06
733 H 13.423835753430922 111.63907804703129 34.563573126860106 H 0.0 **** 0.06
734 H 13.022129702791375 109.96858673850092 34.09642965619511 H 0.0 **** 0.06
735 H 13.990829855898028 110.98928833433321 33.005951224885436 H 0.0 **** 0.06
736 C 29.85901871203913 26.556450427734546 21.69532208405336 C 0.0 **** -0.24
737 H 30.941559209344007 26.56550758618627 21.823258629180636 H 0.0 **** 0.06
738 H 29.387672994727666 26.21844398412324 22.61950696611695 H 0.0 **** 0.06
739 H 29.59479977437934 25.8795007844181 20.883104611562764 H 0.0 **** 0.06
740 H 29.513204672618144 27.562225044455005 21.458181323735054 H 0.0 **** 0.06
741 C 77.12978634950613 77.2341623355316 42.337758137013225 C 0.0 **** -0.24
742 H 76.08507970302043 77.48517757149656 42.52359173696135 H 0.0 **** 0.06
743 H 77.6746711789857 78.13500787546906 42.05523459761932 H 0.0 **** 0.06
744 H 77.18958519996411 76.50363787406604 41.53017972803045 H 0.0 **** 0.06
745 H 77.567888016355 76.81170246888406 43.241810832909664 H 0.0 **** 0.06
746 C 100.86993014324216 70.79490419339078 105.08163267991345 C 0.0 **** -0.24
747 H 100.07985362635944 71.22761736586767 104.46694562196427 H 0.0 **** 0.06
748 H 100.88990065014944 71.29382252019929 106.05072989313867 H 0.0 **** 0.06
749 H 101.83051298840559 70.92623510172785 104.58416965469497 H 0.0 **** 0.06
750 H 100.67662912619501 69.73184324960869 105.22480686119697 H 0.0 **** 0.06
751 C 68.94863608074637 50.05420696015969 34.55237947720636 C 0.0 **** -0.24
752 H 68.81073252725832 50.92097473846846 33.90545600906853 H 0.0 **** 0.06
753 H 69.26422925072666 49.19961793620766 33.952906106710415 H 0.0 **** 0.06
754 H 68.00860060242852 49.820693679388995 35.05270095034891 H 0.0 **** 0.06
755 H 69.71212501903048 50.276521565782474 35.29931098627537 H 0.0 **** 0.06
756 C 77.25111042634092 102.04325395515491 66.78646608236903 C 0.0 **** -0.24
757 H 77.64216833694633 102.7729010665013 67.49482577627248 H 0.0 **** 0.06
758 H 77.93162063472266 101.96027756939537 65.9383466649457 H 0.0 **** 0.06
759 H 76.27109716425917 102.36695084186418 66.43569828692785 H 0.0 **** 0.06
760 H 77.16089030708207 101.07432193248691 67.27659639567943 H 0.0 **** 0.06
761 C 11.714438070157172 11.128122189453961 73.85984782364136 C 0.0 **** -0.24
762 H 12.6981900387608 10.659387533408392 73.82232935265819 H 0.0 **** 0.06
763 H 11.811113318206452 12.190826482671184 73.63711210776069 H 0.0 **** 0.06
764 H 11.29028216121128 11.00202680783815 74.85552466744167 H 0.0 **** 0.06
765 H 11.061366152658223 10.659657899503031 73.12377991359864 H 0.0 **** 0.06
766 C 21.116487801377325 35.352746669326145 84.66997342331875 C 0.0 **** -0.24
767 H 20.25280675525272 35.992350089640745 84.48949573514214 H 0.0 **** 0.06
768 H 21.96955088820571 35.72334758015789 84.09994435097533 H 0.0 **** 0.06
769 H 20.886527429443305 34.33428887902105 84.35861413071672 H 0.0 **** 0.06
770 H 21.358785285342 35.3614054021282 85.73321080253912 H 0.0 **** 0.06
771 C 46.25892811069063 76.50076925433831 98.01160542598237 C 0.0 **** -0.24
772 H 45.49399050327635 75.86394576790863 97.56560196089116 H 0.0 **** 0.06
773 H 45.80771031830484 77.44085389507708 98.32999687182075 H 0.0 **** 0.06
774 H 47.03775376510659 76.70111551319951 97.27644514850641 H 0.0 **** 0.06
775 H 46.69499549550777 75.99549006001706 98.87359550682002 H 0.0 **** 0.06
776 C 77.98916928121218 9.105823781396253 61.36749608894304 C 0.0 **** -0.24
777 H 76.97855336843435 8.847391110735089 61.05382802590627 H 0.0 **** 0.06
778 H 78.09564084510913 8.924390982197338 62.436758743453396 H 0.0 **** 0.06
779 H 78.17561564092438 10.159417455410392 61.156956571992026 H 0.0 **** 0.06
780 H 78.70721890753146 8.494234216231803 60.82129956957847 H 0.0 **** 0.06
781 C 20.418797060906016 94.55203329121517 101.2159763747282 C 0.0 **** -0.24
782 H 21.308903963099276 94.10273382591484 100.77614302673558 H 0.0 **** 0.06
783 H 20.660895923024768 95.54617816325674 101.59227658036264 H 0.0 **** 0.06
784 H 20.065851034306988 93.92840214755739 102.03760039469019 H 0.0 **** 0.06
785 H 19.639325294191877 94.6298428094012 100.45783973342367 H 0.0 **** 0.06
786 C 10.420189326651155 4.250146004421264 106.913823584131 C 0.0 **** -0.24
787 H 9.661486361163043 3.608893654379372 106.46553692992106 H 0.0 **** 0.06
788 H 10.512471530243602 5.166410068582728 106.3296481551667 H 0.0 **** 0.06
789 H 11.376227984950333 3.7280126504999878 106.9255060564752 H 0.0 **** 0.06
790 H 10.128488579441523 4.49791795923036 107.935092164315 H 0.0 **** 0.06
791 C 85.8528106853703 67.77245542413598 26.361036576515453 C 0.0 **** -0.24
792 H 85.9895777581749 68.1238823276251 27.38343501856886 H 0.0 **** 0.06
793 H 86.79157725121769 67.86597257539451 25.815805853283642 H 0.0 **** 0.06
794 H 85.08562169076848 68.37130800324144 25.86998733817571 H 0.0 **** 0.06
795 H 85.54289667562308 66.72718947810075 26.375533304241245 H 0.0 **** 0.06
796 C 111.93232610127905 91.61107912787578 82.44106191670971 C 0.0 **** -0.24
797 H 112.99650412724208 91.72739167210007 82.64834499533583 H 0.0 **** 0.06
798 H 111.64658770289768 92.28009294208637 81.62882806086236 H 0.0 **** 0.06
799 H 111.36008419022495 91.85950985696117 83.3349674390257 H 0.0 **** 0.06
800 H 111.72765597031345 90.58006058464426 82.15318765640964 H 0.0 **** 0.06
801 C 8.539312831792401 108.8189897176799 51.10810719053174 C 0.0 **** -0.24
802 H 8.76897683539454 108.53947689183502 52.136534998396684 H 0.0 **** 0.06
803 H 8.926922359651073 109.81747375155408 50.90705453588262 H 0.0 **** 0.06
804 H 7.45882025376973 108.81149083221135 50.96237696800554 H 0.0 **** 0.06
805 H 9.001577198738943 108.10529929927566 50.42605121312502 H 0.0 **** 0.06
806 C 26.62969414254178 23.016040962843135 68.96496893974341 C 0.0 **** -0.24
807 H 25.89019157551769 22.656013436951582 69.67994153909723 H 0.0 **** 0.06
808 H 26.188122596015376 23.799525811846763 68.34896993184282 H 0.0 **** 0.06
809 H 26.95086870485619 22.191578181116256 68.32814577197502 H 0.0 **** 0.06
810 H 27.489215113510852 23.416385133463848 69.5021708828337 H 0.0 **** 0.06
811 C 92.46727388830806 114.18385141986246 90.53195141982755 C 0.0 **** -0.24
812 H 92.28014693773771 114.41921269449035 89.48436454119198 H 0.0 **** 0.06
813 H 91.97117890376057 113.24770172011473 90.78811974997635 H 0.0 **** 0.06
814 H 92.07741591699961 114.98499710651666 91.16039560477626 H 0.0 **** 0.06
815 H 93.54099281076125 114.08364096328451 90.69568087305964 H 0.0 **** 0.06
816 C 33.16564212551884 83.48657783733236 111.53858796869744 C 0.0 **** -0.24
817 H 33.02800757848331 84.19064034708737 110.71858957591473 H 0.0 **** 0.06
818 H 33.47448071550971 82.51939310031125 111.13951751981858 H 0.0 **** 0.06
819 H 32.226848893673676 83.37312442681801 112.0811064674748 H 0.0 **** 0.06
820 H 33.93333108803199 83.8617441219333 112.21520056980884 H 0.0 **** 0.06
821 C 34.985792194411175 76.59463125475301 117.83082548756178 C 0.0 **** -0.24
822 H 34.25659805326839 77.21477853246049 117.30939095589898 H 0.0 **** 0.06
823 H 34.67758652079252 76.46643978669053 118.86793438214201 H 0.0 **** 0.06
824 H 35.96224909269708 77.07812045339713 117.79847062710573 H 0.0 **** 0.06
825 H 35.04680487429741 75.62018213129937 117.34650425973427 H 0.0 **** 0.06
826 C 12.660161412462994 39.73809527870321 48.425116558314016 C 0.0 **** -0.24
827 H 12.484062181617919 39.98147566456325 47.377109506584304 H 0.0 **** 0.06
828 H 11.884897512898757 39.05563817943178 48.77341370190072 H 0.0 **** 0.06
829 H 12.634080180487999 40.65179760546911 49.01911954560137 H 0.0 **** 0.06
830 H 13.635735892542023 39.26398154392143 48.52813236223591 H 0.0 **** 0.06
831 C 105.27394938373499 29.903318380690763 29.560322001063696 C 0.0 **** -0.24
832 H 105.49013199759884 30.834244316657788 29.034920482123653 H 0.0 **** 0.06
833 H 105.30143329864056 29.07307419782927 28.85517740969999 H 0.0 **** 0.06
834 H 104.28338133967553 29.963956368298795 30.012195594738387 H 0.0 **** 0.06
835 H 106.01983071249154 29.744790459066905 30.338587764424233 H 0.0 **** 0.06
836 C 120.40973329076098 11.136191708883594 60.937012099719055 C 0.0 **** -0.24
837 H 120.07289802204994 10.22032007191316 60.45077153588072 H 0.0 **** 0.06
838 H 119.64529845583044 11.906022563292861 60.82915305142522 H 0.0 **** 0.06
839 H 121.33466969210436 11.475022074856305 60.470919496996316 H 0.0 **** 0.06
840 H 120.58433307879753 10.943213889432762 61.9945663902449 H 0.0 **** 0.06
841 C 75.27423850644584 97.14764955621447 16.54499520397968 C 0.0 **** -0.24
842 H 76.2385439382042 96.75131814229118 16.228974502765386 H 0.0 **** 0.06
843 H 74.52833657434797 96.35209574895302 16.519711776804204 H 0.0 **** 0.06
844 H 74.97241699225518 97.95048852627141 15.87214003106638 H 0.0 **** 0.06
845 H 75.35583255360567 97.53685428703736 17.559959639875643 H 0.0 **** 0.06
846 C 3.079646600820796 23.612690400869567 77.79027422032317 C 0.0 **** -0.24
847 H 2.945899551688001 22.855761259047483 77.01701117081032 H 0.0 **** 0.06
848 H 3.3246210453750447 23.126914768113714 78.73528814274397 H 0.0 **** 0.06
849 H 2.1584524522503514 24.18356672869769 77.90248478900833 H 0.0 **** 0.06
850 H 3.8905546342380006 24.282924809912707 77.5047086101012 H 0.0 **** 0.06
851 C 38.79977836510133 68.74416930185527 121.681108070045 C 0.0 **** -0.24
852 H 38.203960471283644 67.8323694710688 121.6449446810548 H 0.0 **** 0.06
853 H 38.84218450350172 69.1901113760751 120.68805921749163 H 0.0 **** 0.06
854 H 39.809270239393825 68.50456595221635 122.0166451759811 H 0.0 **** 0.06
855 H 38.3442406309369 69.44801080555536 122.3770377866642 H 0.0 **** 0.06
856 C 88.69298689777422 96.78786524947351 69.21753501107221 C 0.0 **** -0.24
857 H 89.54878299983575 96.96575219879539 68.56758817936927 H 0.0 **** 0.06
858 H 88.77111292757668 97.42110323193447 70.10195954281988 H 0.0 **** 0.06
859 H 88.67881235799908 95.74042976692736 69.52090074156123 H 0.0 **** 0.06
860 H 87.7741209054795 97.02362366327263 68.68139983727288 H 0.0 **** 0.06
861 C 42.67524480851321 27.055732925803476 46.593400919085326 C 0.0 **** -0.24
862 H 43.69140126596943 26.80358126472256 46.28984975153469 H 0.0 **** 0.06
863 H 42.509715533178166 26.726028938834162 47.61878329433853 H 0.0 **** 0.06
864 H 41.96559444100572 26.5580981728763 45.931982935783594 H 0.0 **** 0.06
865 H 42.535206761739204 28.135405127520066 46.52997336230864 H 0.0 **** 0.06
866 C 42.60816287409408 103.24216762936658 25.629085085797385 C 0.0 **** -0.24
867 H 42.633947674119256 102.32509383024183 25.04162834016745 H 0.0 **** 0.06
868 H 43.47998725200281 103.85223450849355 25.389073713898824 H 0.0 **** 0.06
869 H 42.619589438810415 102.99461662948363 26.68999110447629 H 0.0 **** 0.06
870 H 41.69989867972263 103.79788846485292 25.39541816981216 H 0.0 **** 0.06
871 C 17.97798294260813 35.02622095864683 75.46413905015277 C 0.0 **** -0.24
872 H 18.558792598735902 34.83944298121668 76.36768089477187 H 0.0 **** 0.06
873 H 18.347379495383844 34.39166954885911 74.65753165544868 H 0.0 **** 0.06
874 H 18.078795311599688 36.07258655836745 75.17804721144552 H 0.0 **** 0.06
875 H 16.928514648139075 34.79992163774227 75.65333376131593 H 0.0 **** 0.06
876 C 114.53129339244546 82.66681298236733 6.8309787768719445 C 0.0 **** -0.24
877 H 114.15958561058059 83.6397684536626 6.509366136544031 H 0.0 **** 0.06
878 H 113.84041173730546 82.2366452969624 7.556943016283043 H 0.0 **** 0.06
879 H 115.51245490402917 82.7869320348376 7.289854779181951 H 0.0 **** 0.06
880 H 114.61161399983968 82.00489448584912 5.968644029364157 H 0.0 **** 0.06
881 C 38.331124137121805 3.7020873237805585 37.49508707488974 C 0.0 **** -0.24
882 H 38.30867213481659 4.502476596972812 38.23410370631535 H 0.0 **** 0.06
883 H 38.5842580707112 4.116946257880375 36.51871058078456 H 0.0 **** 0.06
884 H 37.351265819490294 3.227182405752254 37.44450338838516 H 0.0 **** 0.06
885 H 39.079600838289764 2.9632917374393255 37.781974560245715 H 0.0 **** 0.06
886 C 74.02673699309814 85.63800385151525 8.658116883146818 C 0.0 **** -0.24
887 H 73.94703488906673 85.81403880537013 9.731028807297292 H 0.0 **** 0.06
888 H 73.06425326688151 85.2966420197971 8.274600280148604 H 0.0 **** 0.06
889 H 74.78376393226287 84.87608835791947 8.469676560113683 H 0.0 **** 0.06
890 H 74.31020147965799 86.56367259279327 8.15796997110489 H 0.0 **** 0.06
891 C 50.09153838540612 61.596074833009666 21.17502781757983 C 0.0 **** -0.24
892 H 49.43874591353249 61.528089704742385 22.044978212552593 H 0.0 **** 0.06
893 H 51.05882762409078 61.15250840188017 21.41199423104615 H 0.0 **** 0.06
894 H 50.22801101213341 62.6433606743109 20.903673164985975 H 0.0 **** 0.06
895 H 49.640755082554165 61.06060093424928 20.340413092206262 H 0.0 **** 0.06
896 C 47.59587646717036 118.96267162928862 106.75908403795093 C 0.0 **** -0.24
897 H 47.054300854047945 118.49194423988592 107.58027302240431 H 0.0 **** 0.06
898 H 48.06814467408851 119.87932309095899 107.11453533936466 H 0.0 **** 0.06
899 H 46.89985201195492 119.20032867846578 105.95439788145279 H 0.0 **** 0.06
900 H 48.35940672442439 118.27904068511822 106.38845354306493 H 0.0 **** 0.06
901 C 115.89325021800359 50.82562766278005 44.6305606249459 C 0.0 **** -0.24
902 H 115.2802688996252 51.57789799827157 45.127347270863254 H 0.0 **** 0.06
903 H 115.67903374102912 49.84467675289818 45.05588681927145 H 0.0 **** 0.06
904 H 116.94682845575686 51.06249613190312 44.773822116153724 H 0.0 **** 0.06
905 H 115.66463739574738 50.817503187591115 43.56507348277279 H 0.0 **** 0.06
906 C 83.2514947084284 29.08458925730855 42.68161533617814 C 0.0 **** -0.24
907 H 82.46144688056592 28.532207403374883 43.18966492763059 H 0.0 **** 0.06
908 H 83.26471167823013 28.810547705581257 41.62618542099523 H 0.0 **** 0.06
909 H 84.21305248810422 28.84064800303173 43.132911236864686 H 0.0 **** 0.06
910 H 83.0667677868136 30.15495391724616 42.77769975922217 H 0.0 **** 0.06
911 C 67.69116012275256 19.645873898274942 109.64214730089601 C 0.0 **** -0.24
912 H 67.81503596588593 20.52976283083254 109.01666123129824 H 0.0 **** 0.06
913 H 68.01127685195453 19.87283900206492 110.65886201341672 H 0.0 **** 0.06
914 H 68.2954288577325 18.831173179379988 109.24323285304344 H 0.0 **** 0.06
915 H 66.64186788430581 19.349909781417267 109.64845414063095 H 0.0 **** 0.06
916 C 121.38408450431534 15.941602419596041 67.56754069728393 C 0.0 **** -0.24
917 H 121.88839167198971 15.911204444565396 68.53369802576438 H 0.0 **** 0.06
918 H 121.45555543344929 16.94776555169353 67.15211745608431 H 0.0 **** 0.06
919 H 120.33561369666518 15.675363079428006 67.69631264359003 H 0.0 **** 0.06
920 H 121.8588893709657 15.233301343121287 66.88823247794224 H 0.0 **** 0.06
921 C 95.10108181961309 11.852674616894234 91.67111859303787 C 0.0 **** -0.24
922 H 94.80354289199254 10.926946647211963 92.16397154882344 H 0.0 **** 0.06
923 H 95.95526404826266 11.659550394124466 91.02114126174018 H 0.0 **** 0.06
924 H 95.37566910041417 12.592037848492652 92.42344933257334 H 0.0 **** 0.06
925 H 94.26986309015376 12.230933620813971 91.07661020659953 H 0.0 **** 0.06
926 C 67.33919486002964 50.34482203491339 16.78783391994193 C 0.0 **** -0.24
927 H 67.39228186345402 49.80727779211671 17.733891843224228 H 0.0 **** 0.06
928 H 66.34587904149758 50.221127272088324 16.354629487872742 H 0.0 **** 0.06
929 H 68.08681569781032 49.94695952471898 16.101144580458794 H 0.0 **** 0.06
930 H 67.5310477266804 51.40328487365872 16.960247776532654 H 0.0 **** 0.06
931 C 71.2602160062029 110.53306414206813 29.318035805360026 C 0.0 **** -0.24
932 H 71.61780801525174 109.69208236017475 28.723849547695494 H 0.0 **** 0.06
933 H 72.03852409816895 110.84055926504459 30.01718387637932 H 0.0 **** 0.06
934 H 70.37122085358774 110.23347686758908 29.87314642188251 H 0.0 **** 0.06
935 H 71.01435265403008 111.36576205952335 28.658843032551985 H 0.0 **** 0.06
936 C 18.342752007152797 110.27968961857124 120.94710549495242 C 0.0 **** -0.24
937 H 18.191338432866303 109.20482584158259 121.04463231005249 H 0.0 **** 0.06
938 H 18.158776629738895 110.58057285302868 119.91599298010235 H 0.0 **** 0.06
939 H 19.36804378239691 110.52806026256775 121.22103522616099 H 0.0 **** 0.06
940 H 17.652100780002 110.80553471637535 121.60738164650559 H 0.0 **** 0.06
941 C 96.69276232347048 9.87733282557408 72.75674189804344 C 0.0 **** -0.24
942 H 97.16491237288878 8.911399738495952 72.93580698283326 H 0.0 **** 0.06
943 H 95.79518446311639 9.962744083063555 73.3698582401796 H 0.0 **** 0.06
944 H 96.42262920454988 9.959558944843561 71.70388498570797 H 0.0 **** 0.06
945 H 97.38789603674726 10.674814622596532 73.01634260980859 H 0.0 **** 0.06
946 C 20.301722330777693 28.640969138344474 51.36080298283014 C 0.0 **** -0.24
947 H 19.54695464125072 28.83134213930157 50.597348597367386 H 0.0 **** 0.06
948 H 20.216030177087276 27.61009621541507 51.70561397941975 H 0.0 **** 0.06
949 H 20.149053110814748 29.31990363138584 52.20005788907031 H 0.0 **** 0.06
950 H 21.29349933460466 28.802093244566265 50.937549940830365 H 0.0 **** 0.06
951 C 63.30632029381907 45.726887243691294 99.19910707496211 C 0.0 **** -0.24
952 H 64.30041130684783 46.10723249535749 99.43492326424729 H 0.0 **** 0.06
953 H 63.348706397666746 44.64276832127808 99.09373965473736 H 0.0 **** 0.06
954 H 62.96116248482927 46.16935035674385 98.26434656083546 H 0.0 **** 0.06
955 H 62.616941287682536 45.98733198016919 100.00130078665921 H 0.0 **** 0.06
956 C 83.02177899867507 59.58169304799431 94.57381746371159 C 0.0 **** -0.24
957 H 82.6836305415355 60.42807916443178 95.1717128347776 H 0.0 **** 0.06
958 H 82.34655469640421 59.44160630107304 93.72990601544193 H 0.0 **** 0.06
959 H 83.0268272011734 58.68246303609537 95.1893794663993 H 0.0 **** 0.06
960 H 84.02899306703495 59.77680784202792 94.2060026590657 H 0.0 **** 0.06
961 C 1.3968573142030518 107.71192359522996 59.99453748565392 C 0.0 **** -0.24
962 H 2.1393373257247443 107.23279670965476 59.35584303377817 H 0.0 **** 0.06
963 H 1.5356410909217466 107.38120805163325 61.02447149764987 H 0.0 **** 0.06
964 H 0.3967618581467338 107.438213554544 59.65609889094918 H 0.0 **** 0.06
965 H 1.5152668063877481 108.79387472211337 59.94061505561163 H 0.0 **** 0.06
966 C 29.063970698351653 1.162934663352587 54.44822935928437 C 0.0 **** -0.24
967 H 29.02676000372395 0.5996254382428106 55.38079399671784 H 0.0 **** 0.06
968 H 29.534586878537397 0.5530287632263651 53.6759120608433 H 0.0 **** 0.06
969 H 29.64411687136105 2.0726502175212147 54.597218088802265 H 0.0 **** 0.06
970 H 28.051779290287783 1.4232621640546625 54.140036547824934 H 0.0 **** 0.06
971 C 16.296944103045035 37.33767327307157 61.303223562440735 C 0.0 **** -0.24
972 H 15.848203747095567 38.326315403043424 61.40329141929186 H 0.0 **** 0.06
973 H 17.382381844385876 37.42425361328495 61.364137682529986 H 0.0 **** 0.06
974 H 16.019900775787022 36.90975751186929 60.33942594933035 H 0.0 **** 0.06
975 H 15.93707231465747 36.693433549800346 62.104443317766936 H 0.0 **** 0.06
976 C 67.60314122129053 73.55518877204548 29.871010604579453 C 0.0 **** -0.24
977 H 67.37839761110148 73.70968611449848 30.926400861611228 H 0.0 **** 0.06
978 H 68.05679743579186 72.57319622520431 29.73712116998945 H 0.0 **** 0.06
979 H 68.29598653871372 74.32539742991338 29.53138474674671 H 0.0 **** 0.06
980 H 66.68184380073578 73.61293013385053 29.291498139380508 H 0.0 **** 0.06
981 C 84.27261246198039 66.76777657494051 93.086513767491 C 0.0 **** -0.24
982 H 84.97117593703193 66.67753745841851 92.25406452937625 H 0.0 **** 0.06
983 H 84.60002555501502 67.57029506946768 93.7485330381408 H 0.0 **** 0.06
984 H 84.2437718487796 65.82978217010768 93.63954210037758 H 0.0 **** 0.06
985 H 83.27775492870467 66.99516559397783 92.70383189135254 H 0.0 **** 0.06
986 C 5.015614977694156 40.35551480665953 108.29402409191322 C 0.0 **** -0.24
987 H 5.917880198698725 40.20924306021361 108.8866172711298 H 0.0 **** 0.06
988 H 5.282207173911615 40.77432894682306 107.32351441236425 H 0.0 **** 0.06
989 H 4.345522595782711 41.04023472162774 108.81359461609763 H 0.0 **** 0.06
990 H 4.515620805124428 39.39681197371212 108.15081622341239 H 0.0 **** 0.06
991 C 101.8013980635709 12.858485756905424 17.828008115221337 C 0.0 **** -0.24
992 H 101.06901032231889 12.054494573946727 17.7648653374996 H 0.0 **** 0.06
993 H 102.61371764104933 12.666639282339446 17.127124008673036 H 0.0 **** 0.06
994 H 102.19975125288835 12.907894663408243 18.841962386395835 H 0.0 **** 0.06
995 H 101.32351210750767 13.806579991481101 17.579518496100434 H 0.0 **** 0.06
996 C 119.12255873568964 111.8491422638511 36.85516084772189 C 0.0 **** -0.24
997 H 118.76673419091651 112.85796932481755 36.647012971907714 H 0.0 **** 0.06
998 H 118.36699011860438 111.12664477266816 36.54488644705458 H 0.0 **** 0.06
999 H 119.30926210541747 111.7435463630889 37.92402383454936 H 0.0 **** 0.06
1000 H 120.04595361425609 111.66848254996152 36.30528390749561 H 0.0 **** 0.06
1001 C 8.72141165044276 10.401060721388276 121.28958984369956 C 0.0 **** -0.24
1002 H 8.281586885178736 9.570601417585682 121.84189159996467 H 0.0 **** 0.06
1003 H 9.563017279920622 10.806291015612906 121.85224971743219 H 0.0 **** 0.06
1004 H 7.971704296825532 11.179535655017894 121.14732466674843 H 0.0 **** 0.06
1005 H 9.068780457034805 10.04874294048808 120.31909063026563 H 0.0 **** 0.06
1006 C 38.23933872646751 26.045346267569627 37.82816127020706 C 0.0 **** -0.24
1007 H 39.32543102949569 25.95520753613374 37.85163965589646 H 0.0 **** 0.06
1008 H 37.960307713472446 26.919206589287974 37.23940194727945 H 0.0 **** 0.06
1009 H 37.862615446791494 26.156213930452957 38.845204369106256 H 0.0 **** 0.06
1010 H 37.810962621821886 25.151145539071038 37.376412858367445 H 0.0 **** 0.06
1011 C 51.89201185008545 15.317705521896876 69.772267300088 C 0.0 **** -0.24
1012 H 51.975620583376895 16.046791680562247 70.57777994602864 H 0.0 **** 0.06
1013 H 52.526741147890164 14.459802555033498 69.99190762510929 H 0.0 **** 0.06
1014 H 52.20890390796461 15.774296468071064 68.83439211638071 H 0.0 **** 0.06
1015 H 50.85581415751409 14.989908787078406 69.6847379451738 H 0.0 **** 0.06
1016 C 120.192895272911 100.93204668698598 54.67856315938991 C 0.0 **** -0.24
1017 H 121.00958142587079 100.30901472015302 55.042073213011236 H 0.0 **** 0.06
1018 H 119.25607561897924 100.60587091632675 55.13168243287214 H 0.0 **** 0.06
1019 H 120.12278331261793 100.84218910984329 53.594846591300055 H 0.0 **** 0.06
1020 H 120.38294588324719 101.97191371751374 54.9450853000606 H 0.0 **** 0.06
1021 C 70.01149761425341 123.94408909179421 58.619605887992066 C 0.0 **** -0.24
1022 H 70.0976152318076 125.0266632341324 58.72003876443762 H 0.0 **** 0.06
1023 H 69.43355037299756 123.70722868300449 57.72655336048882 H 0.0 **** 0.06
1024 H 69.5095899677533 123.53722728753466 59.49697744373822 H 0.0 **** 0.06
1025 H 71.00743714998868 123.50779385874507 58.535637548451575 H 0.0 **** 0.06
1026 C 59.73148032239175 117.27708473239893 114.41583590879206 C 0.0 **** -0.24
1027 H 58.79502812702299 116.80604172206225 114.71662576802223 H 0.0 **** 0.06
1028 H 59.528589826988195 118.03931786902436 113.66323785915347 H 0.0 **** 0.06
1029 H 60.398682587699625 116.52277671135808 113.99936354947069 H 0.0 **** 0.06
1030 H 60.20121679098969 117.73791756285239 115.28410855947702 H 0.0 **** 0.06
1031 C 86.74399194106894 69.8877854117456 11.614010588805996 C 0.0 **** -0.24
1032 H 85.95740552333635 70.007513871237 10.868911523511798 H 0.0 **** 0.06
1033 H 87.32112763873693 70.80953868534414 11.68388883354595 H 0.0 **** 0.06
1034 H 87.40089997446061 69.06909350823969 11.318290838736118 H 0.0 **** 0.06
1035 H 86.29640391721485 69.66340945256707 12.581564736774993 H 0.0 **** 0.06
1036 C 95.60507617090946 98.42076648747289 107.42273273021141 C 0.0 **** -0.24
1037 H 95.52043228392495 99.3094215708375 108.04970989292384 H 0.0 **** 0.06
1038 H 95.31022883660364 98.66749905846048 106.40232014407643 H 0.0 **** 0.06
1039 H 94.95332904253655 97.63886040809295 107.81097518718785 H 0.0 **** 0.06
1040 H 96.63683988384685 98.07050411307424 107.42852680476558 H 0.0 **** 0.06
1041 C 75.08055268192004 71.50219359136554 8.807185328962479 C 0.0 **** -0.24
1042 H 75.81488434870295 72.00218803153604 9.438221963995549 H 0.0 **** 0.06
1043 H 75.59355339109288 70.9543747439647 8.016046562728238 H 0.0 **** 0.06
1044 H 74.41671567825637 72.24426941792018 8.3645414950578 H 0.0 **** 0.06
1045 H 74.4970046593615 70.80671742573202 9.410636511534424 H 0.0 **** 0.06
1046 C 57.38001848518218 72.74046851380153 88.04837613126958 C 0.0 **** -0.24
1047 H 57.88551440041681 71.8183987529186 87.76182433959399 H 0.0 **** 0.06
1048 H 57.176961387494146 72.725047827005 89.11975878486564 H 0.0 **** 0.06
1049 H 56.441356683418405 72.82555470323544 87.50127829300295 H 0.0 **** 0.06
1050 H 58.017200118042126 73.59279182077697 87.81091604221545 H 0.0 **** 0.06
1051 C 44.5392067766432 5.1142349941731595 45.96118117967809 C 0.0 **** -0.24
1052 H 44.31644854947098 5.513297179918794 46.950703714610356 H 0.0 **** 0.06
1053 H 45.413801835932816 4.465829412025812 46.019270968152156 H 0.0 **** 0.06
1054 H 44.74000544336769 5.936099581054805 45.27494643258591 H 0.0 **** 0.06
1055 H 43.685104616573255 4.540853999838106 45.6008571007142 H 0.0 **** 0.06
1056 C 24.72624654238203 59.27298166478883 59.68773597828465 C 0.0 **** -0.24
1057 H 25.48260460539032 58.73483982756588 60.26033324320791 H 0.0 **** 0.06
1058 H 24.8680849944582 59.07677640978167 58.62491893691116 H 0.0 **** 0.06
1059 H 24.820648493013152 60.3419111505452 59.876465100817626 H 0.0 **** 0.06
1060 H 23.734275235488724 58.9365635859248 59.99033892679891 H 0.0 **** 0.06
1061 C 51.166776019493774 45.52783835905541 97.82691498103827 C 0.0 **** -0.24
1062 H 50.7698527501149 46.30384988992404 98.4819140381502 H 0.0 **** 0.06
1063 H 51.030949838325405 44.55269667471288 98.29574832825173 H 0.0 **** 0.06
1064 H 52.22830627890896 45.70511647129871 97.65715446682597 H 0.0 **** 0.06
1065 H 50.63662002820232 45.550019114755855 96.87484337636548 H 0.0 **** 0.06
1066 C 48.25002490461365 118.63165479012079 3.2091461364967415 C 0.0 **** -0.24
1067 H 47.28266417784529 118.61438883836088 3.710149892945367 H 0.0 **** 0.06
1068 H 48.88826543948716 119.3810594842425 3.6783298789549974 H 0.0 **** 0.06
1069 H 48.11047400368314 118.87996525093934 2.157457437883565 H 0.0 **** 0.06
1070 H 48.719893126110144 117.65129530416948 3.2913949597788275 H 0.0 **** 0.06
1071 C 86.47028300411483 9.609310855545658 28.584122282817553 C 0.0 **** -0.24
1072 H 85.72959901946174 8.844538277464835 28.820357144343916 H 0.0 **** 0.06
1073 H 85.96647833782984 10.56100640575454 28.41454293372334 H 0.0 **** 0.06
1074 H 87.01569567076311 9.32017360435131 27.68525831650924 H 0.0 **** 0.06
1075 H 87.16730660631455 9.708951213819006 29.41592669539685 H 0.0 **** 0.06
1076 C 111.60921485485386 89.03340492940085 98.68899045601614 C 0.0 **** -0.24
1077 H 110.69172848015378 89.61336490406474 98.7830852346732 H 0.0 **** 0.06
1078 H 111.63063347575189 88.26105447656491 99.45702929718078 H 0.0 **** 0.06
1079 H 112.46944433108683 89.69228578145193 98.81006074238826 H 0.0 **** 0.06
1080 H 111.64472461191713 88.56804663162582 97.70321538141837 H 0.0 **** 0.06
1081 C 30.99340553337842 56.208837821486554 114.17791150746001 C 0.0 **** -0.24
1082 H 31.34705967970521 56.98349831883536 113.49814498862122 H 0.0 **** 0.06
1083 H 31.82581915167924 55.56074861536706 114.45408666049372 H 0.0 **** 0.06
1084 H 30.22022169631549 55.61877486070762 113.68673423051575 H 0.0 **** 0.06
1085 H 30.58153147781141 56.67311500006127 115.07451410828901 H 0.0 **** 0.06
1086 C 10.793989961681206 58.845527801920014 60.681449016714 C 0.0 **** -0.24
1087 H 11.03815181531209 59.65813263667462 59.99767343508876 H 0.0 **** 0.06
1088 H 9.873456215446538 59.084264402578015 61.21420052533523 H 0.0 **** 0.06
1089 H 11.606087755721234 58.717664119426104 61.39764577426996 H 0.0 **** 0.06
1090 H 10.65928463033643 57.92302846205769 60.11631171331612 H 0.0 **** 0.06
1091 C 52.33458396425024 81.85014045738944 107.58724479292454 C 0.0 **** -0.24
1092 H 52.65342974955152 82.77875360631677 107.113948177552 H 0.0 **** 0.06
1093 H 52.815987323223226 81.75422837320122 108.56073255004065 H 0.0 **** 0.06
1094 H 52.61656096835051 81.00640768494466 106.95666352568247 H 0.0 **** 0.06
1095 H 51.252332656704056 81.86086414203203 107.71520493682851 H 0.0 **** 0.06
1096 C 100.55449122304913 52.73058364898819 79.84385500847479 C 0.0 **** -0.24
1097 H 100.08026200844961 53.31761452179026 80.630761068029 H 0.0 **** 0.06
1098 H 100.62382131975738 51.68897027221129 80.1596186724707 H 0.0 **** 0.06
1099 H 101.55451776310576 53.12105816423798 79.65350450473956 H 0.0 **** 0.06
1100 H 99.9597929446696 52.79537662253844 78.93306771302886 H 0.0 **** 0.06
1101 C 72.37920887953152 118.66741164784312 119.03644759146118 C 0.0 **** -0.24
1102 H 72.56187822871078 118.04255609030527 119.91040418185284 H 0.0 **** 0.06
1103 H 73.1500495505955 119.43517844800104 118.97139763966891 H 0.0 **** 0.06
1104 H 71.40135252207506 119.13983769634511 119.12712974893043 H 0.0 **** 0.06
1105 H 72.40324922592987 118.05030635536524 118.13819326492958 H 0.0 **** 0.06
1106 C 21.246543428093396 111.73474887883492 104.16183872508377 C 0.0 **** -0.24
1107 H 21.87054902444857 111.34068904518651 103.35957469090096 H 0.0 **** 0.06
1108 H 20.195835202019516 111.60920380190589 103.90061016933475 H 0.0 **** 0.06
1109 H 21.462172023721898 112.79423708243323 104.30264640127909 H 0.0 **** 0.06
1110 H 21.45860579945556 111.19540909816035 105.08583815190026 H 0.0 **** 0.06
1111 C 50.10730907369863 29.59448232561948 43.81193830164693 C 0.0 **** -0.24
1112 H 50.86058931826946 28.924649365236746 43.396071211885356 H 0.0 **** 0.06
1113 H 49.50438512609516 29.05351786579891 44.54265095436182 H 0.0 **** 0.06
1114 H 49.46560521667621 29.960425724756476 43.01082516217366 H 0.0 **** 0.06
1115 H 50.597994868257615 30.437215400085393 44.29845870234425 H 0.0 **** 0.06
1116 C 47.32793298000976 107.33810060768297 119.42939836752895 C 0.0 **** -0.24
1117 H 47.04075394193586 106.41070499297737 119.92434306032688 H 0.0 **** 0.06
1118 H 48.37080499281265 107.5631662510697 119.6560108294493 H 0.0 **** 0.06
1119 H 46.694578163975564 108.15128417483407 119.7848247368914 H 0.0 **** 0.06
1120 H 47.206394872345015 107.22718752129614 118.35125016045704 H 0.0 **** 0.06
1121 C 92.92509946868267 93.52768295760913 55.44633649633265 C 0.0 **** -0.24
1122 H 93.7110908245345 94.2718460527115 55.57641571764434 H 0.0 **** 0.06
1123 H 92.07494496572153 93.78394695062346 56.07895630550895 H 0.0 **** 0.06
1124 H 93.30422603297319 92.5454192976604 55.727318394230934 H 0.0 **** 0.06
1125 H 92.60949951521809 93.51175567975665 54.40342678456307 H 0.0 **** 0.06
1126 C 54.41658073713006 9.538355677792694 103.4728494250102 C 0.0 **** -0.24
1127 H 55.36967782689746 9.911269051926695 103.848107028903 H 0.0 **** 0.06
1128 H 54.08926454391248 8.69748555302445 104.0861897647721 H 0.0 **** 0.06
1129 H 54.53518041811353 9.210579512755317 102.43997449513174 H 0.0 **** 0.06
1130 H 53.67266625873539 10.33321850394816 103.519368289368 H 0.0 **** 0.06
1131 C 78.36825391258898 108.04558729654272 93.46265443803162 C 0.0 **** -0.24
1132 H 78.45666939722678 107.27407151443037 94.22657572201311 H 0.0 **** 0.06
1133 H 79.3467945858532 108.49169093143453 93.28145986480044 H 0.0 **** 0.06
1134 H 77.67470706936852 108.81584837989462 93.80263008833458 H 0.0 **** 0.06
1135 H 77.99386223168625 107.60216278900285 92.54003031166746 H 0.0 **** 0.06
1136 C 47.07810723544161 15.011913000590823 9.604010646174295 C 0.0 **** -0.24
1137 H 46.928427115100845 15.009257116106937 8.524344719030768 H 0.0 **** 0.06
1138 H 46.64141968647792 15.915605762788573 10.028821272323196 H 0.0 **** 0.06
1139 H 48.14624368240788 14.986104100999682 9.822764411559863 H 0.0 **** 0.06
1140 H 46.59812287039867 14.135975145445855 10.039553468339022 H 0.0 **** 0.06
1141 C 90.03779703962758 74.5245854008833 26.120090074754707 C 0.0 **** -0.24
1142 H 90.43508062113474 75.09724064065716 25.28199614034311 H 0.0 **** 0.06
1143 H 90.85399052248195 74.00843269966578 26.625968830868487 H 0.0 **** 0.06
1144 H 89.31762903998967 73.79359673560504 25.751733778245168 H 0.0 **** 0.06
1145 H 89.54490855636172 75.19966287674208 26.819447661312267 H 0.0 **** 0.06
1146 C 120.0819736320775 24.325268469101985 53.736453322671366 C 0.0 **** -0.24
1147 H 120.62538760972777 24.50104505160428 52.80728238743933 H 0.0 **** 0.06
1148 H 120.43806089238228 25.015547961514244 54.50116620389812 H 0.0 **** 0.06
1149 H 120.24745399891236 23.29989306687594 54.06515557577811 H 0.0 **** 0.06
1150 H 119.01705917144221 24.48520382113165 53.5686571238065 H 0.0 **** 0.06
1151 C 5.4589858592938185 80.72319756662932 49.42803542915519 C 0.0 **** -0.24
1152 H 5.12612615167464 79.96407842926476 48.719846694796814 H 0.0 **** 0.06
1153 H 4.607522213025675 81.33143566071658 49.734520059389354 H 0.0 **** 0.06
1154 H 6.209043175002904 81.35725910629719 48.955857850620106 H 0.0 **** 0.06
1155 H 5.892820205973095 80.23799523237847 50.3027692164068 H 0.0 **** 0.06
1156 C 101.50387659475881 56.87124714409029 49.76741496240298 C 0.0 **** -0.24
1157 H 101.82443515347168 57.31333538347333 48.82363376419755 H 0.0 **** 0.06
1158 H 100.43240679698133 57.02627720987785 49.89670492914615 H 0.0 **** 0.06
1159 H 102.04175235301908 57.34265402903159 50.59041858676596 H 0.0 **** 0.06
1160 H 101.71749223866972 55.80200439175772 49.75928801580571 H 0.0 **** 0.06
1161 C 121.06530817346115 23.766069233763915 35.68908257140066 C 0.0 **** -0.24
1162 H 120.49561665318107 23.195167940279333 34.95555887375353 H 0.0 **** 0.06
1163 H 120.55629252698209 24.70832714304771 35.89148761340793 H 0.0 **** 0.06
1164 H 122.06227199584264 23.96790131180434 35.29838113259848 H 0.0 **** 0.06
1165 H 121.14700132958792 23.190907358221168 36.612353305993835 H 0.0 **** 0.06
1166 C 57.739725674624 81.06482221143715 114.39744146487271 C 0.0 **** -0.24
1167 H 58.399673757097304 81.82949677875878 113.98713661632269 H 0.0 **** 0.06
1168 H 58.20059988621814 80.08496740647547 114.2784744411579 H 0.0 **** 0.06
1169 H 56.78764899372622 81.08633638806097 113.86812607066454 H 0.0 **** 0.06
1170 H 57.571616007474745 81.26201691247498 115.45564798291966 H 0.0 **** 0.06
1171 C 104.03255715101568 108.31178073319788 108.51513648625135 C 0.0 **** -0.24
1172 H 103.13111323214136 107.90419545251169 108.9741984430809 H 0.0 **** 0.06
1173 H 104.33383056822888 109.21355772382408 109.04678788977402 H 0.0 **** 0.06
1174 H 103.8293860833165 108.55548873954982 107.47212322848033 H 0.0 **** 0.06
1175 H 104.8322945354204 107.57310991284292 108.56679140300172 H 0.0 **** 0.06
1176 C 0.5027004527355565 10.424802419555135 107.6133663292996 C 0.0 **** -0.24
1177 H -0.3473529039507479 10.082794895842554 107.02240703409353 H 0.0 **** 0.06
1178 H 0.1725885777728564 10.652089886588612 108.62729053511796 H 0.0 **** 0.06
1179 H 0.9231659434303108 11.320965396880183 107.15888936883516 H 0.0 **** 0.06
1180 H 1.26148472201184 9.64309583525889 107.64457432864552 H 0.0 **** 0.06
1181 C 77.609491757402 82.00931454977436 33.21925329634462 C 0.0 **** -0.24
1182 H 77.13873902883495 81.57197279822631 32.33793561917361 H 0.0 **** 0.06
1183 H 78.41610496508258 82.67217562800076 32.90826783495811 H 0.0 **** 0.06
1184 H 78.01238907155255 81.21479061502427 33.84719451001257 H 0.0 **** 0.06
1185 H 76.8685196125341 82.57676200567269 33.78232200559128 H 0.0 **** 0.06
1186 C 86.41032049187379 47.41266230391636 99.83068072979222 C 0.0 **** -0.24
1187 H 86.59738193217336 46.361107590256154 99.61395189261492 H 0.0 **** 0.06
1188 H 87.20569986114995 47.79821981278869 100.46893992723744 H 0.0 **** 0.06
1189 H 85.45259953947428 47.512528847997345 100.34120981206507 H 0.0 **** 0.06
1190 H 86.38632658179762 47.97621421990502 98.89771381522644 H 0.0 **** 0.06
1191 C 69.69740019316802 63.2839679192526 117.21563470949881 C 0.0 **** -0.24
1192 H 69.13015154732074 63.9364913469787 116.55152863098765 H 0.0 **** 0.06
1193 H 69.10069446096367 63.06001085142614 118.10000466597016 H 0.0 **** 0.06
1194 H 70.61873641213336 63.782728967803024 117.51461068937053 H 0.0 **** 0.06
1195 H 69.93791899791665 62.357690866192996 116.69481691189957 H 0.0 **** 0.06
1196 C 21.508467400639205 3.1152626922173567 66.57809723087006 C 0.0 **** -0.24
1197 H 22.10999648104584 2.9544242185669987 67.47279743922581 H 0.0 **** 0.06
1198 H 21.096642580733715 2.1643940601505847 66.24050154234523 H 0.0 **** 0.06
1199 H 22.133459463514043 3.540734749509511 65.7926399228428 H 0.0 **** 0.06
1200 H 20.694908811211036 3.8030392465269074 66.80702407095056 H 0.0 **** 0.06
1201 C 23.13262643414285 6.178829242357011 102.05425078268729 C 0.0 **** -0.24
1202 H 23.666323508681984 6.976562290366189 102.5721795390275 H 0.0 **** 0.06
1203 H 22.718119868380356 6.566336280520318 101.12347727593618 H 0.0 **** 0.06
1204 H 22.324586760974995 5.812406669627279 102.68684469073713 H 0.0 **** 0.06
1205 H 23.82149849918727 5.363607510198278 101.83423605090564 H 0.0 **** 0.06
1206 C 102.27674591065403 63.98014063109645 33.14027386447893 C 0.0 **** -0.24
1207 H 102.5236194734364 65.01969029425523 33.357150967982065 H 0.0 **** 0.06
1208 H 102.9731665978012 63.58935714583791 32.39846108774887 H 0.0 **** 0.06
1209 H 101.26073800839868 63.92229916234544 32.75083841425848 H 0.0 **** 0.06
1210 H 102.34969708634728 63.39139740475507 34.054214890812574 H 0.0 **** 0.06
1211 C 4.944272664048476 44.33702243783981 15.936824193897905 C 0.0 **** -0.24
1212 H 5.3807966339375 45.23912252757354 15.508632722084343 H 0.0 **** 0.06
1213 H 5.736386383416452 43.62016685998679 16.15750664979825 H 0.0 **** 0.06
1214 H 4.245300977552009 43.89832850549477 15.224613599626736 H 0.0 **** 0.06
1215 H 4.416036822025443 44.58909923987903 16.856277771343684 H 0.0 **** 0.06
1216 C 120.74752840635801 17.68987468872953 37.74575830958031 C 0.0 **** -0.24
1217 H 120.27463818630366 18.131566645521076 36.86850591024657 H 0.0 **** 0.06
1218 H 120.03553998609019 17.0373073154758 38.25127391901128 H 0.0 **** 0.06
1219 H 121.06338244184033 18.480830978781768 38.42541560561477 H 0.0 **** 0.06
1220 H 121.6167809870486 17.108894936440464 37.434984642620776 H 0.0 **** 0.06
1221 C 108.47034796818429 108.10895160677194 7.033300512576233 C 0.0 **** -0.24
1222 H 109.42832575384784 108.34076766724758 6.567347072236885 H 0.0 **** 0.06
1223 H 107.6775820960811 108.18714444475428 6.2901606926547515 H 0.0 **** 0.06
1224 H 108.28164605721429 108.81293980327106 7.843451662407688 H 0.0 **** 0.06
1225 H 108.49694925278766 107.09399544954007 7.431609628999098 H 0.0 **** 0.06
1226 C 75.85218130138867 107.34160739733782 31.013607571388874 C 0.0 **** -0.24
1227 H 75.11173109739929 106.72287463545449 31.521206829438583 H 0.0 **** 0.06
1228 H 75.5119529735718 108.37708723585659 30.99881227221556 H 0.0 **** 0.06
1229 H 75.98243471654865 106.98552588764426 29.991810772274576 H 0.0 **** 0.06
1230 H 76.80314161844939 107.27843905056693 31.54445788030216 H 0.0 **** 0.06
1231 C 123.57338146837182 119.64479007350744 40.75328104189894 C 0.0 **** -0.24
1232 H 123.67275681410871 118.59082986756519 41.012653603171245 H 0.0 **** 0.06
1233 H 124.51536017450573 120.00713629135294 40.34117054518147 H 0.0 **** 0.06
1234 H 123.3240841944352 120.2160162882974 41.6474640113991 H 0.0 **** 0.06
1235 H 122.78193425285373 119.76339477213733 40.0130398959103 H 0.0 **** 0.06
1236 C 77.92323343376994 52.64034327490117 112.47729800501197 C 0.0 **** -0.24
1237 H 76.98740345499978 52.1626065069606 112.76891177217935 H 0.0 **** 0.06
1238 H 78.6496854702935 52.53827492499258 113.28364731573494 H 0.0 **** 0.06
1239 H 77.74601804886505 53.697354097992616 112.27942046757346 H 0.0 **** 0.06
1240 H 78.30922286613753 52.1618590211379 111.57718540874491 H 0.0 **** 0.06
1241 C 103.27783483006147 91.44992677842058 95.32301893870408 C 0.0 **** -0.24
1242 H 102.88803593232018 92.35703287591183 94.86079597075867 H 0.0 **** 0.06
1243 H 103.02020611971705 91.44398969151581 96.38292081939127 H 0.0 **** 0.06
1244 H 104.36175273874642 91.4224234059479 95.21228399495249 H 0.0 **** 0.06
1245 H 102.84049357691356 90.57783616388019 94.83741491322827 H 0.0 **** 0.06
1246 C 63.23821119805034 6.956783070316426 59.7263464211928 C 0.0 **** -0.24
1247 H 63.709235428796234 7.9258744563091525 59.56004910783058 H 0.0 **** 0.06
1248 H 63.739355494497374 6.445501616558044 60.548223159315896 H 0.0 **** 0.06
1249 H 63.31620319602625 6.354838453692608 58.82078766946462 H 0.0 **** 0.06
1250 H 62.187269914384615 7.102704908234259 59.975231779900426 H 0.0 **** 0.06
1251 C 71.90416606454852 112.74789189793498 85.15876024179829 C 0.0 **** -0.24
1252 H 72.10029639025541 112.87539140528199 84.0939797487789 H 0.0 **** 0.06
1253 H 71.11866741084361 113.43775667649479 85.46890732556801 H 0.0 **** 0.06
1254 H 72.81358281801539 112.95435302876072 85.7231959645303 H 0.0 **** 0.06
1255 H 71.58436098142977 111.72270647402124 85.34865581539839 H 0.0 **** 0.06
1256 C 118.08936115856662 94.96926621536949 92.922737974304 C 0.0 **** -0.24
1257 H 118.75915925013568 95.80166448404351 92.70692012185495 H 0.0 **** 0.06
1258 H 118.61284899540411 94.23009378776226 93.52964105434367 H 0.0 **** 0.06
1259 H 117.76698556341347 94.51109745854475 91.9884120120922 H 0.0 **** 0.06
1260 H 117.21830467958812 95.3363235229086 93.46720684188475 H 0.0 **** 0.06
1261 C 41.14055000124598 83.47276973840988 16.327885289305044 C 0.0 **** -0.24
1262 H 41.575290263539785 83.14086984718028 17.27112232941768 H 0.0 **** 0.06
1263 H 41.6537010724411 82.98314580235079 15.499333441647167 H 0.0 **** 0.06
1264 H 41.25224536052497 84.55372748946573 16.237114962388162 H 0.0 **** 0.06
1265 H 40.08186135857203 83.21375258663899 16.304111351960785 H 0.0 **** 0.06
1266 C 44.70913804773153 82.54139584837924 48.03797915732588 C 0.0 **** -0.24
1267 H 43.67408025996036 82.4925347239994 47.698217872311545 H 0.0 **** 0.06
1268 H 45.32560733876909 82.9889946298714 47.2588311507628 H 0.0 **** 0.06
1269 H 45.06821194690167 81.53442848448046 48.25377638673078 H 0.0 **** 0.06
1270 H 44.766002478396445 83.14832148054472 48.941617040196945 H 0.0 **** 0.06
1271 C 91.98576742147397 31.56455301458817 91.47825170756559 C 0.0 **** -0.24
1272 H 91.16876106138349 32.24559394103596 91.7156112390488 H 0.0 **** 0.06
1273 H 92.14122525898385 31.548132429792474 90.39942412953545 H 0.0 **** 0.06
1274 H 91.73578543525825 30.56155366531459 91.82493030542557 H 0.0 **** 0.06
1275 H 92.89631078895052 31.90349018699891 91.9721961051713 H 0.0 **** 0.06
1276 C 1.6613925162703254 61.93420699283499 35.833145963682426 C 0.0 **** -0.24
1277 H 1.898929513958194 62.99708907955255 35.83500246643948 H 0.0 **** 0.06
1278 H 1.4792119735230926 61.600465686438454 36.85497898830042 H 0.0 **** 0.06
1279 H 2.4974440303152505 61.374775363067414 35.41214729072408 H 0.0 **** 0.06
1280 H 0.7697101103428281 61.76227951138921 35.23039217648821 H 0.0 **** 0.06
1281 C 57.673812710466876 84.05982395600705 28.45220088639101 C 0.0 **** -0.24
1282 H 57.432321843535306 83.05107393257492 28.787126634466887 H 0.0 **** 0.06
1283 H 58.74912978438388 84.22072676768647 28.531776043692133 H 0.0 **** 0.06
1284 H 57.15058316287272 84.78449145294906 29.076646725730825 H 0.0 **** 0.06
1285 H 57.36355341745204 84.1821620960369 27.415298207215216 H 0.0 **** 0.06
1286 C 20.359442656412952 3.384859066258068 49.140360117343675 C 0.0 **** -0.24
1287 H 19.57733483014547 4.1441954357248 49.139774510371524 H 0.0 **** 0.06
1288 H 21.0457518738936 3.569644172976556 48.31296908687179 H 0.0 **** 0.06
1289 H 19.909094962762403 2.3993246318032924 49.026894354061284 H 0.0 **** 0.06
1290 H 20.906208850127094 3.4284179404594415 50.08280805343017 H 0.0 **** 0.06
1291 C 7.028601347213311 75.60747917190534 1.6963934278653312 C 0.0 **** -0.24
1292 H 7.007830416092702 75.9018860983389 2.745988050652983 H 0.0 **** 0.06
1293 H 7.177253337728814 76.49122532807374 1.0745509117265613 H 0.0 **** 0.06
1294 H 6.083971926032717 75.13169779955061 1.4331520114286889 H 0.0 **** 0.06
1295 H 7.847102387987803 74.90654738469553 1.5328074320623557 H 0.0 **** 0.06
1296 C 117.52097228053698 15.766195383513832 1.7094345360371932 C 0.0 **** -0.24
1297 H 117.81128329281175 15.489542326051748 0.6956395194916603 H 0.0 **** 0.06
1298 H 117.77596272172082 14.956919752820738 2.393194363663408 H 0.0 **** 0.06
1299 H 116.44665141524578 15.94720777373658 1.7436529523080093 H 0.0 **** 0.06
1300 H 118.05105589242329 16.672216138657546 2.003624065424008 H 0.0 **** 0.06
1301 C 13.517018046397084 92.82590191630324 3.1512460731619285 C 0.0 **** -0.24
1302 H 13.111968689338383 93.81260081830463 2.9269672432925518 H 0.0 **** 0.06
1303 H 12.753240734434645 92.22473756056515 3.645075365560958 H 0.0 **** 0.06
1304 H 14.381016263031782 92.92833091829021 3.8067733518490154 H 0.0 **** 0.06
1305 H 13.819903177809021 92.33952695790296 2.223579783512916 H 0.0 **** 0.06
1306 C 38.07206441825031 40.02838630272552 84.482587322074 C 0.0 **** -0.24
1307 H 38.2684851813376 39.02314468916336 84.85452932473395 H 0.0 **** 0.06
1308 H 39.006884922412596 40.58652304173242 84.43140423385985 H 0.0 **** 0.06
1309 H 37.381730178820085 40.53635442386994 85.15762128324326 H 0.0 **** 0.06
1310 H 37.62956903787719 39.96764842604287 83.48865502171779 H 0.0 **** 0.06
1311 C 78.00322130646809 2.33394033261051 25.733484164631562 C 0.0 **** -0.24
1312 H 77.48423998156775 3.1111921987192943 26.294289496912285 H 0.0 **** 0.06
1313 H 79.05787610085731 2.328490538414016 26.00950281161053 H 0.0 **** 0.06
1314 H 77.90866587801018 2.5327201563749924 24.665336876629055 H 0.0 **** 0.06
1315 H 77.56275890284034 1.3642720910682726 25.962874692001463 H 0.0 **** 0.06
1316 C 9.20302627326916 36.16214371927231 54.895245770195004 C 0.0 **** -0.24
1317 H 9.409145501409142 35.43929189435079 54.10491363008323 H 0.0 **** 0.06
1318 H 8.887292289368844 37.105837523536366 54.449309882409835 H 0.0 **** 0.06
1319 H 10.105837975783487 36.32225895325735 55.485054107121 H 0.0 **** 0.06
1320 H 8.410375784812231 35.77978986131325 55.53858273630003 H 0.0 **** 0.06
1321 C 115.44840838303139 47.973788704071 68.79842012172764 C 0.0 **** -0.24
1322 H 115.43014717471254 48.49328051355412 67.84065790507572 H 0.0 **** 0.06
1323 H 114.42670413765347 47.81832264733419 69.14701232719244 H 0.0 **** 0.06
1324 H 115.99362413220899 48.574955021504586 69.52757282991968 H 0.0 **** 0.06
1325 H 115.9431811201514 47.01075948542617 68.67958714837619 H 0.0 **** 0.06
1326 C 9.542608438683573 22.985207065757407 80.72376142029282 C 0.0 **** -0.24
1327 H 9.707163825264388 22.337518436068834 81.58466655512089 H 0.0 **** 0.06
1328 H 10.066343774602473 23.929693839344218 80.87542818248588 H 0.0 **** 0.06
1329 H 8.474915177241655 23.174919702338556 80.6112405340067 H 0.0 **** 0.06
1330 H 9.92271349717501 22.498648921024966 79.82605658616063 H 0.0 **** 0.06
1331 C 114.01825669108321 10.69942866950474 104.19132377352372 C 0.0 **** -0.24
1332 H 113.10772289439528 11.12918005558484 104.60748912120435 H 0.0 **** 0.06
1333 H 114.6309521554056 10.297308099940324 104.99843717661872 H 0.0 **** 0.06
1334 H 114.57543306235976 11.470648374308922 103.66141882557322 H 0.0 **** 0.06
1335 H 113.75822452168838 9.898635304221656 103.49881241392869 H 0.0 **** 0.06
1336 C 116.13389696032039 100.38250599744113 111.21086782390688 C 0.0 **** -0.24
1337 H 116.85621105832496 100.47369696567883 112.02098890387785 H 0.0 **** 0.06
1338 H 116.60272609227701 99.88668128659373 110.36079322884079 H 0.0 **** 0.06
1339 H 115.79580362071073 101.37454457080031 110.9114599595765 H 0.0 **** 0.06
1340 H 115.28079390055404 99.79483453696729 111.54884133127405 H 0.0 **** 0.06
1341 C 64.47410223555033 29.847747756348163 24.90333706762297 C 0.0 **** -0.24
1342 H 64.81947779302823 29.57212186658105 25.90032145105544 H 0.0 **** 0.06
1343 H 63.42832782299064 29.563386934414602 24.789849316905467 H 0.0 **** 0.06
1344 H 65.07615869517088 29.33041761501584 24.1550140371549 H 0.0 **** 0.06
1345 H 64.57453233293398 30.925103463889975 24.768963627315443 H 0.0 **** 0.06
1346 C 96.41797034884644 64.78954925720231 20.06691774213982 C 0.0 **** -0.24
1347 H 96.497718768303 65.03586618003092 21.12570661071487 H 0.0 **** 0.06
1348 H 95.37996617736289 64.8886594536005 19.747740248921957 H 0.0 **** 0.06
1349 H 96.75072278534458 63.764157607081955 19.90704133351568 H 0.0 **** 0.06
1350 H 97.04303712254918 65.4686292697157 19.487018117904086 H 0.0 **** 0.06
1351 C 89.82400643958212 68.7692155073651 45.80511816895404 C 0.0 **** -0.24
1352 H 89.61705103377003 68.83577854127319 44.737213441449455 H 0.0 **** 0.06
1353 H 90.73311685577588 68.18658473303819 45.96277755978684 H 0.0 **** 0.06
1354 H 88.9886269143482 68.28219689435073 46.30758069984256 H 0.0 **** 0.06
1355 H 89.95950856703658 69.77140075226944 46.21287258466515 H 0.0 **** 0.06
1356 C 4.293819049827306 25.809492717227613 80.41947117110229 C 0.0 **** -0.24
1357 H 4.203057819712711 26.75694223091722 80.95080395862416 H 0.0 **** 0.06
1358 H 5.222106348616961 25.318126904656395 80.71086786712365 H 0.0 **** 0.06
1359 H 4.302767222961251 25.994991722097808 79.34558861904645 H 0.0 **** 0.06
1360 H 3.4480503660534794 25.16997239635461 80.67112326227195 H 0.0 **** 0.06
1361 C 61.61969917742101 56.4815054238762 110.54307638670262 C 0.0 **** -0.24
1362 H 62.109220086111634 57.30336737743215 111.06472460933689 H 0.0 **** 0.06
1363 H 61.224031264258144 55.773656143445976 111.27139843312196 H 0.0 **** 0.06
1364 H 62.34226628379457 55.97735675341099 109.9001520650789 H 0.0 **** 0.06
1365 H 60.8034298501525 56.872288716480824 109.93528322479658 H 0.0 **** 0.06
1366 C 5.074880698998346 51.2323399155193 74.51387273422264 C 0.0 **** -0.24
1367 H 5.117374840493227 50.29424198566626 75.06693259345644 H 0.0 **** 0.06
1368 H 5.561806090082584 52.017128597669696 75.09364178273083 H 0.0 **** 0.06
1369 H 4.034740498800534 51.503488396409026 74.33755629591363 H 0.0 **** 0.06
1370 H 5.5866696172514345 51.11445505926248 73.5595641433842 H 0.0 **** 0.06
1371 C 15.323596474814764 83.84146605452975 65.98788771690391 C 0.0 **** -0.24
1372 H 14.525988338234953 83.67824376426591 65.26334204232114 H 0.0 **** 0.06
1373 H 14.983171000818146 83.53552867941943 66.97749701575393 H 0.0 **** 0.06
1374 H 15.588319405574197 84.89777906279039 66.00417269092361 H 0.0 **** 0.06
1375 H 16.196544116388225 83.25247798491546 65.70531345586323 H 0.0 **** 0.06
1376 C 32.7666877820167 88.08727443196474 39.83702835374555 C 0.0 **** -0.24
1377 H 32.47533791397905 88.23651060577771 38.79757825892409 H 0.0 **** 0.06
1378 H 33.79708983678631 88.41560877825081 39.975693074876204 H 0.0 **** 0.06
1379 H 32.68452137951013 87.03022778064268 40.0897233444322 H 0.0 **** 0.06
1380 H 32.10974372611122 88.6684240792579 40.48467589451519 H 0.0 **** 0.06
1381 C 119.17029423610848 61.37112730017574 114.36178687875301 C 0.0 **** -0.24
1382 H 120.24846637981346 61.28633822520604 114.2303780336498 H 0.0 **** 0.06
1383 H 118.83086774473813 62.33113097150269 113.97120605092233 H 0.0 **** 0.06
1384 H 118.9281179019084 61.30529279003778 115.42260927650527 H 0.0 **** 0.06
1385 H 118.67338649618591 60.56322920165212 113.82459410859312 H 0.0 **** 0.06
1386 C 2.0022100283973714 93.42742383818388 92.56679695115929 C 0.0 **** -0.24
1387 H 3.0355552262202536 93.14341016864996 92.76409775378238 H 0.0 **** 0.06
1388 H 1.885046281013615 93.66193725813241 91.50865809722526 H 0.0 **** 0.06
1389 H 1.7460669322730382 94.30297450789874 93.16376049348908 H 0.0 **** 0.06
1390 H 1.341615859072931 92.60196893205006 92.83125153460138 H 0.0 **** 0.06
1391 C 116.66330904690679 60.73547298984403 53.35811618978488 C 0.0 **** -0.24
1392 H 116.44460804604368 59.767697453005724 53.8096270968482 H 0.0 **** 0.06
1393 H 115.86895623659251 61.44003760494115 53.60598926815709 H 0.0 **** 0.06
1394 H 116.72849767847741 60.625209279777664 52.27566847117265 H 0.0 **** 0.06
1395 H 117.61282774447132 61.108472617359666 53.74260838976329 H 0.0 **** 0.06
1396 C 61.87509645369764 3.985018270593315 121.62397206751879 C 0.0 **** -0.24
1397 H 62.93439959577444 4.0813370274829595 121.86109067024421 H 0.0 **** 0.06
1398 H 61.292458686347345 4.605524744139132 122.30485653290907 H 0.0 **** 0.06
1399 H 61.57231885811504 2.9432022555477886 121.73140973331263 H 0.0 **** 0.06
1400 H 61.70126423549229 4.30937397976686 120.59776084947856 H 0.0 **** 0.06
1401 C 25.45134716002073 79.45468925419823 111.75677410716263 C 0.0 **** -0.24
1402 H 24.849006430858225 78.88371420919735 111.04899946749501 H 0.0 **** 0.06
1403 H 25.835165983980033 80.35037763342496 111.26654432314803 H 0.0 **** 0.06
1404 H 26.28378470292037 78.84234829018547 112.10157538076703 H 0.0 **** 0.06
1405 H 24.83403496394689 79.74184149953031 112.60848121194005 H 0.0 **** 0.06
1406 C 115.31050627585051 98.59988803868104 52.83593060772213 C 0.0 **** -0.24
1407 H 114.40078320526229 99.1940059095821 52.92039110799766 H 0.0 **** 0.06
1408 H 116.17506846943951 99.26312312550091 52.80295852917031 H 0.0 **** 0.06
1409 H 115.27311878385024 98.00600357272555 51.92220024721149 H 0.0 **** 0.06
1410 H 115.39254523400005 97.93621361864273 53.69686939594963 H 0.0 **** 0.06
1411 C 30.124327411918188 118.37632322636644 26.2372679991755 C 0.0 **** -0.24
1412 H 29.965578467738425 118.38124555062183 27.31596410489361 H 0.0 **** 0.06
1413 H 31.08114579844701 118.84618564512654 26.00910445707521 H 0.0 **** 0.06
1414 H 29.32092604690766 118.92960089163945 25.749712010535802 H 0.0 **** 0.06
1415 H 30.127812056964018 117.34803348136565 25.875530840006462 H 0.0 **** 0.06
1416 C 42.627381524740144 76.86802287683798 121.52233320978047 C 0.0 **** -0.24
1417 H 43.33693831974392 77.17456745684215 122.29010610495328 H 0.0 **** 0.06
1418 H 42.486632258039265 77.68232239067252 120.81166898250882 H 0.0 **** 0.06
1419 H 41.67215238891498 76.62256108013513 121.98778737403501 H 0.0 **** 0.06
1420 H 43.012587755445054 75.99240435844479 121.00045387302151 H 0.0 **** 0.06
1421 C 92.04437531988222 59.735817088580404 98.20239470416193 C 0.0 **** -0.24
1422 H 92.77923170508211 60.46050730855842 98.55336749470791 H 0.0 **** 0.06
1423 H 91.12089397364949 59.851013342284176 98.77057933726132 H 0.0 **** 0.06
1424 H 92.4342941189442 58.72810202764609 98.34295198505632 H 0.0 **** 0.06
1425 H 91.84554899446954 59.90421451449018 97.14428881492657 H 0.0 **** 0.06
1426 C 122.79436950284327 75.02265285619947 33.10680017409899 C 0.0 **** -0.24
1427 H 123.245524864435 74.03617385715819 33.21289787644483 H 0.0 **** 0.06
1428 H 122.94852331490597 75.59408446178307 34.02356534125494 H 0.0 **** 0.06
1429 H 121.72625378921303 74.91587750313809 32.92039873855512 H 0.0 **** 0.06
1430 H 123.25800457546133 75.5465481642843 32.27020349837167 H 0.0 **** 0.06
1431 C 39.894536056514426 65.03113167477085 86.5527616665936 C 0.0 **** -0.24
1432 H 40.10955706928348 66.05263683711343 86.86728178155403 H 0.0 **** 0.06
1433 H 40.32855495815562 64.33195356108513 87.26941110010122 H 0.0 **** 0.06
1434 H 40.32608341744185 64.85648574403893 85.56722456598438 H 0.0 **** 0.06
1435 H 38.81524281362323 64.8844453143127 86.5096464434412 H 0.0 **** 0.06
1436 C 52.167099256610584 19.011396754016403 50.41271891400339 C 0.0 **** -0.24
1437 H 51.609709955059486 18.64527732945527 51.27496159745516 H 0.0 **** 0.06
1438 H 52.75526720081746 19.8815591808131 50.70433601021401 H 0.0 **** 0.06
1439 H 51.470811814038825 19.290333714333656 49.62220348327864 H 0.0 **** 0.06
1440 H 52.832438556609986 18.227556907997496 50.05143178122398 H 0.0 **** 0.06
1441 C 67.35945484267575 105.68412171469217 69.6455687591912 C 0.0 **** -0.24
1442 H 66.6256450626941 105.07310199504285 69.11826342923868 H 0.0 **** 0.06
1443 H 68.36402949126251 105.34563996092602 69.38997213026622 H 0.0 **** 0.06
1444 H 67.20593633225744 105.58794758440072 70.72038981792062 H 0.0 **** 0.06
1445 H 67.24092675557388 106.72731038183821 69.35256670036406 H 0.0 **** 0.06
1446 C 84.9210553743786 91.67869028068546 72.21624127092883 C 0.0 **** -0.24
1447 H 85.5985631605491 91.72485934113087 71.36451992985548 H 0.0 **** 0.06
1448 H 85.46652854620967 91.33189060541159 73.09541978176874 H 0.0 **** 0.06
1449 H 84.10803517779655 90.98603377354672 71.99695408286605 H 0.0 **** 0.06
1450 H 84.51177401631796 92.67004980793118 72.41002659448426 H 0.0 **** 0.06
1451 C 51.65361694136868 48.18003289391629 34.30809686938778 C 0.0 **** -0.24
1452 H 51.656550216472795 47.254477557942096 33.73285483843307 H 0.0 **** 0.06
1453 H 50.84029657903751 48.15457301330616 35.033581196745615 H 0.0 **** 0.06
1454 H 51.51302955464578 49.026008475129345 33.63489092847294 H 0.0 **** 0.06
1455 H 52.60387111988456 48.2856580338958 34.830688475641466 H 0.0 **** 0.06
1456 C 62.63046089291113 63.11048539923583 115.6474479933473 C 0.0 **** -0.24
1457 H 62.66908444112562 63.73958922385232 116.53669559793951 H 0.0 **** 0.06
1458 H 62.29122862374099 63.702285386894744 114.79725333853963 H 0.0 **** 0.06
1459 H 61.93711994933689 62.28628273552164 115.81581968656499 H 0.0 **** 0.06
1460 H 63.6246935993953 62.71298979264043 115.44056073038504 H 0.0 **** 0.06
1461 C 47.71059591321321 85.99371737369589 47.71377299549353 C 0.0 **** -0.24
1462 H 48.13638051442018 85.06994103193865 47.32149060441192 H 0.0 **** 0.06
1463 H 47.340056352056564 86.60152049344636 46.88832432499788 H 0.0 **** 0.06
1464 H 48.47816082812582 86.54522875181645 48.25706115904626 H 0.0 **** 0.06
1465 H 46.8882014082769 85.75602786671854 48.388662389717666 H 0.0 **** 0.06
1466 C 15.943678231215188 49.40685952123087 65.07470029971684 C 0.0 **** -0.24
1467 H 14.938284055410719 49.825669269314815 65.03021818709769 H 0.0 **** 0.06
1468 H 15.93358514645324 48.501146179514635 65.6816452863401 H 0.0 **** 0.06
1469 H 16.620814576875034 50.13654285602175 65.52022176849688 H 0.0 **** 0.06
1470 H 16.28142142279168 49.16596479782527 64.06699451557871 H 0.0 **** 0.06
1471 C 11.445076616794182 33.00324699103115 69.78453958579883 C 0.0 **** -0.24
1472 H 10.645836274957702 32.70433974474315 70.46290973008047 H 0.0 **** 0.06
1473 H 12.393305811704693 33.01130539221427 70.32121930062152 H 0.0 **** 0.06
1474 H 11.238191550633076 34.000684468781884 69.3960144476348 H 0.0 **** 0.06
1475 H 11.501282604950944 32.29544667359946 68.95672053823512 H 0.0 **** 0.06
1476 C 32.795766686474224 35.04758315664944 25.407941368537195 C 0.0 **** -0.24
1477 H 32.6147026039861 36.121902655683385 25.382366142475576 H 0.0 **** 0.06
1478 H 32.01168620128223 34.560476743417695 25.98815673742172 H 0.0 **** 0.06
1479 H 33.7645691391393 34.85312204779558 25.869855300649817 H 0.0 **** 0.06
1480 H 32.79320989548472 34.65414780387036 24.390820992678982 H 0.0 **** 0.06
1481 C 1.3518944291324715 33.856874483324106 90.99692892076399 C 0.0 **** -0.24
1482 H 1.6791278759222763 34.44653118380805 90.14038179855598 H 0.0 **** 0.06
1483 H 1.7097627832963411 32.83335546981559 90.89061468805644 H 0.0 **** 0.06
1484 H 0.2625405669077736 33.858579125118155 91.04504350034941 H 0.0 **** 0.06
1485 H 1.756315437363412 34.290433357491764 91.91158517261186 H 0.0 **** 0.06
1486 C 60.025737884948086 0.11162868209319754 92.85525476254142 C 0.0 **** -0.24
1487 H 60.93624170021043 0.614988444059037 93.1837552608228 H 0.0 **** 0.06
1488 H 60.27829405028038 -0.8693696201685555 92.45365871565556 H 0.0 **** 0.06
1489 H 59.54067581969775 0.7075275852994594 92.08230652206657 H 0.0 **** 0.06
1490 H 59.35036796275074 -0.004947158367770044 93.70280077651111 H 0.0 **** 0.06
1491 C 43.1811055098176 40.58463369344998 24.328495738051082 C 0.0 **** -0.24
1492 H 42.271988424088704 40.732483105654666 24.910502033754256 H 0.0 **** 0.06
1493 H 44.02326493378604 40.433096002541355 25.00414325838608 H 0.0 **** 0.06
1494 H 43.36341383547227 41.46319388083403 23.70968932689142 H 0.0 **** 0.06
1495 H 43.06509147868712 39.708846059779376 23.690497744085484 H 0.0 **** 0.06
1496 C 65.26871931048598 26.923514976916124 53.57323548319127 C 0.0 **** -0.24
1497 H 65.59493454387346 27.50954313773167 54.432837343707234 H 0.0 **** 0.06
1498 H 65.85506271401051 27.206133090656408 52.697837731675534 H 0.0 **** 0.06
1499 H 64.21358751185646 27.116036181213076 53.38190038416981 H 0.0 **** 0.06
1500 H 65.41355879302166 25.863213596603373 53.78070408987432 H 0.0 **** 0.06
1501 C 18.023072091888537 43.828537162399584 120.78146943632417 C 0.0 **** -0.24
1502 H 18.532485644591645 43.836871299130976 121.74516082400145 H 0.0 **** 0.06
1503 H 18.32287074274865 44.70398095774814 120.20449136461869 H 0.0 **** 0.06
1504 H 16.9447642637179 43.84912702533103 120.94055750187296 H 0.0 **** 0.06
1505 H 18.293419386368782 42.923534433320185 120.23584209073648 H 0.0 **** 0.06
1506 C 9.286891521719873 56.72031965829757 108.72340530639394 C 0.0 **** -0.24
1507 H 8.616644705098068 56.252876612933434 108.00242966114698 H 0.0 **** 0.06
1508 H 8.836550780325439 57.640479287435 109.09471668715258 H 0.0 **** 0.06
1509 H 10.2372417315793 56.9498467043459 108.24066669931284 H 0.0 **** 0.06
1510 H 9.457865970014353 56.03661489419653 109.55524078843587 H 0.0 **** 0.06
1511 C 58.07585810500035 46.16340299975265 50.77973520764868 C 0.0 **** -0.24
1512 H 59.03962419378689 46.06930695088887 51.27986474294928 H 0.0 **** 0.06
1513 H 58.234862825382834 46.39298019513684 49.725747750942716 H 0.0 **** 0.06
1514 H 57.50180448411578 46.96480014835116 51.24503163673871 H 0.0 **** 0.06
1515 H 57.52769201591343 45.22489935927142 50.86853058668652 H 0.0 **** 0.06
1516 C 66.14901824197278 39.720844234321646 11.610725120858834 C 0.0 **** -0.24
1517 H 65.26402471831258 40.352722204450146 11.544684727406974 H 0.0 **** 0.06
1518 H 67.04327928504802 40.344176410354976 11.580180891635358 H 0.0 **** 0.06
1519 H 66.16203479632955 39.02533339931773 10.771324753950132 H 0.0 **** 0.06
1520 H 66.12711893319567 39.16127815167985 12.545796732270826 H 0.0 **** 0.06
1521 C 85.49037223642908 49.418341062798504 53.694812340872716 C 0.0 **** -0.24
1522 H 84.49590960795476 49.193160609407556 54.07834653634313 H 0.0 **** 0.06
1523 H 85.52905358846665 49.18938807383668 52.62932510649179 H 0.0 **** 0.06
1524 H 86.22883228523973 48.815652896983266 54.22286195985154 H 0.0 **** 0.06
1525 H 85.70790606501853 50.47611079395372 53.847688156367354 H 0.0 **** 0.06
1526 C 112.52909709857131 58.0722981439132 27.715612465665032 C 0.0 **** -0.24
1527 H 112.89906836742362 57.13257178827274 28.12567263735727 H 0.0 **** 0.06
1528 H 112.13685614288948 58.69184930695661 28.523372459189545 H 0.0 **** 0.06
1529 H 111.73567640077454 57.86787946548577 26.996093629227573 H 0.0 **** 0.06
1530 H 113.344982304196 58.597808690281695 27.21837031502929 H 0.0 **** 0.06
1531 C 78.6182521230163 123.01275784139943 66.7120224615905 C 0.0 **** -0.24
1532 H 79.53343820867974 122.7313366785425 67.23118155817338 H 0.0 **** 0.06
1533 H 78.50397238924342 122.39833285018759 65.81916482343786 H 0.0 **** 0.06
1534 H 78.66968219539586 124.06272911532756 66.42613278049862 H 0.0 **** 0.06
1535 H 77.76420338011263 122.85721019553972 67.37182199632767 H 0.0 **** 0.06
1536 C 33.90210363341281 17.252453054196213 75.04480452231682 C 0.0 **** -0.24
1537 H 34.597444501209175 17.94517311834125 75.51892760766911 H 0.0 **** 0.06
1538 H 32.8921977425132 17.449754847037422 75.40364957885768 H 0.0 **** 0.06
1539 H 34.1834619547821 16.22884345393205 75.29331331516299 H 0.0 **** 0.06
1540 H 33.9372084685457 17.387160570758923 73.96370635598828 H 0.0 **** 0.06
1541 C 23.055790971017025 56.71667261109157 119.99220681786431 C 0.0 **** -0.24
1542 H 23.4165423132089 55.7800160466432 120.41755334916797 H 0.0 **** 0.06
1543 H 21.965097963497 56.71575559354103 119.98494642762967 H 0.0 **** 0.06
1544 H 23.424807768009053 56.8187022450804 118.97195673491919 H 0.0 **** 0.06
1545 H 23.415327169541953 57.55080878760502 120.5940707763018 H 0.0 **** 0.06
1546 C 93.15921148015829 43.51386607090243 116.73139917270785 C 0.0 **** -0.24
1547 H 92.8912022892467 42.45795316044066 116.74729410471036 H 0.0 **** 0.06
1548 H 94.13299139088784 43.6494239080947 117.20230200747719 H 0.0 **** 0.06
1549 H 92.4095443485414 44.087353627281495 117.27691905483991 H 0.0 **** 0.06
1550 H 93.20272105917158 43.86287662800073 115.6995894678777 H 0.0 **** 0.06
1551 C 61.40642499484346 0.52349340328729 109.17414289752604 C 0.0 **** -0.24
1552 H 62.33680851988839 0.5458034403080205 108.60678369864185 H 0.0 **** 0.06
1553 H 60.56162354000651 0.6051661552157555 108.49010358613198 H 0.0 **** 0.06
1554 H 61.38947103113367 1.3593243816067115 109.87462838997511 H 0.0 **** 0.06
1555 H 61.34017759578876 -0.41431295728571627 109.7261974670579 H 0.0 **** 0.06
1556 C 78.3720624595972 102.24436388439597 112.90903405464991 C 0.0 **** -0.24
1557 H 77.72997296092137 103.07849200570304 113.19011767908252 H 0.0 **** 0.06
1558 H 78.09391354675029 101.36204931614934 113.4868255196861 H 0.0 **** 0.06
1559 H 79.4105864823515 102.5007639869496 113.11520989662795 H 0.0 **** 0.06
1560 H 78.2530295250744 102.03571007295284 111.84604420031536 H 0.0 **** 0.06
1561 C 123.81853292014735 112.16533178871259 118.61191046547255 C 0.0 **** -0.24
1562 H 123.98588990481747 111.53144685754444 119.48346098688161 H 0.0 **** 0.06
1563 H 124.76408135027009 112.32802387501982 118.09473529886527 H 0.0 **** 0.06
1564 H 123.40942227221872 113.12305163699631 118.93344719853201 H 0.0 **** 0.06
1565 H 123.11430744588098 111.67734807024397 117.93792004203344 H 0.0 **** 0.06
1566 C 70.80279091834146 13.85129845329044 76.33763790077047 C 0.0 **** -0.24
1567 H 70.48483296245958 14.142797544024887 77.33859480248552 H 0.0 **** 0.06
1568 H 70.85337437922962 12.763871249076317 76.27546765051066 H 0.0 **** 0.06
1569 H 71.78688135660228 14.272674480240681 76.13241372910294 H 0.0 **** 0.06
1570 H 70.08762338610319 14.225126066628036 75.60632886076867 H 0.0 **** 0.06
1571 C 6.127244285170391 11.315045697706353 12.517982900422624 C 0.0 **** -0.24
1572 H 5.821728352922875 10.338433801647739 12.145152080825113 H 0.0 **** 0.06
1573 H 7.126154729127109 11.243056776229992 12.949493371171059 H 0.0 **** 0.06
1574 H 5.425118763547786 11.649370784150847 13.281041965691912 H 0.0 **** 0.06
1575 H 6.138171576849658 12.031194321457633 11.695426197388457 H 0.0 **** 0.06
1576 C 117.06582947121206 40.583018840464604 24.19485106759663 C 0.0 **** -0.24
1577 H 117.50236208889811 40.142402609229975 25.090471662391792 H 0.0 **** 0.06
1578 H 116.94239331136701 41.656372535622324 24.340693767091693 H 0.0 **** 0.06
1579 H 116.09378293009308 40.12806232429284 24.002172982006698 H 0.0 **** 0.06
1580 H 117.72479209788078 40.404429927027195 23.344905194707223 H 0.0 **** 0.06
1581 C 94.90585475549562 109.35059025037158 27.191534023638496 C 0.0 **** -0.24
1582 H 95.37336959438021 108.36876474387373 27.122460038183476 H 0.0 **** 0.06
1583 H 94.86268045238945 109.80364387744227 26.20127745202285 H 0.0 **** 0.06
1584 H 95.49211628025323 109.9856903133754 27.856932500626385 H 0.0 **** 0.06
1585 H 93.89661213948202 109.24475812436943 27.58744250429254 H 0.0 **** 0.06
1586 C 10.347164873984752 80.61093048194213 40.18147816201952 C 0.0 **** -0.24
1587 H 10.341190783711852 80.42879922666745 39.10607158346848 H 0.0 **** 0.06
1588 H 9.951379366354132 79.73704705311218 40.69910669693484 H 0.0 **** 0.06
1589 H 9.729509415495016 81.47983371547065 40.40604785981142 H 0.0 **** 0.06
1590 H 11.369472855592448 80.79635757438172 40.51155680380854 H 0.0 **** 0.06
1591 C 72.98510351932504 9.839690530367733 21.6701704994465 C 0.0 **** -0.24
1592 H 74.03267332898662 9.54560053962777 21.733085241319372 H 0.0 **** 0.06
1593 H 72.6808865355959 10.301908789461123 22.609188607148894 H 0.0 **** 0.06
1594 H 72.37133701442946 8.959065942183315 21.482442812969026 H 0.0 **** 0.06
1595 H 72.8563172099499 10.552493709544962 20.85484020260992 H 0.0 **** 0.06
1596 C 5.2689722604661995 11.899851033758097 64.1730515765229 C 0.0 **** -0.24
1597 H 5.668427377519066 10.894767601727992 64.03982027654735 H 0.0 **** 0.06
1598 H 6.003130033669493 12.517757215033441 64.69095607688344 H 0.0 **** 0.06
1599 H 4.353581709691923 11.850558631675128 64.76416425264472 H 0.0 **** 0.06
1600 H 5.048814108019712 12.335871151542818 63.198290792461364 H 0.0 **** 0.06
1601 C 94.05158763860271 43.802866568937844 107.04703609273014 C 0.0 **** -0.24
1602 H 94.6382586364631 43.98513620086234 106.14646758000652 H 0.0 **** 0.06
1603 H 93.67609107292722 44.7501178870546 107.43350465781435 H 0.0 **** 0.06
1604 H 94.67953157925682 43.32572497972747 107.79893035158283 H 0.0 **** 0.06
1605 H 93.21239304997485 43.14902240296402 106.80727993065875 H 0.0 **** 0.06
1606 C 24.343521594859865 18.82919661211389 26.110601980997103 C 0.0 **** -0.24
1607 H 24.321555272228842 19.430565782014554 27.018942369484478 H 0.0 **** 0.06
1608 H 23.379461885517784 18.900594701183962 25.605100249345192 H 0.0 **** 0.06
1609 H 24.54266700430165 17.789120560182795 26.368236610956785 H 0.0 **** 0.06
1610 H 25.12850603316202 19.19713161738244 25.45024075672321 H 0.0 **** 0.06
1611 C 62.1229892211137 119.580528907743 45.41745074559319 C 0.0 **** -0.24
1612 H 61.486314131857426 120.0483097951152 44.66722509903055 H 0.0 **** 0.06
1613 H 61.64529844440797 119.65316687572135 46.39463494931224 H 0.0 **** 0.06
1614 H 63.08662610047699 120.09055972516465 45.44380046705894 H 0.0 **** 0.06
1615 H 62.274201644099236 118.5312541068417 45.1629651283543 H 0.0 **** 0.06
1616 C 91.07050067961319 85.92969748913154 21.13792001849319 C 0.0 **** -0.24
1617 H 90.37935371108745 85.42255642065487 21.811691902315857 H 0.0 **** 0.06
1618 H 91.64270515070262 86.67066147328109 21.69613782710971 H 0.0 **** 0.06
1619 H 90.50840628284669 86.42513213432773 20.346271037484513 H 0.0 **** 0.06
1620 H 91.75039477492703 85.1993182887997 20.698777701868124 H 0.0 **** 0.06
1621 C 33.99577801713635 38.48295231961919 17.809162952489714 C 0.0 **** -0.24
1622 H 35.039494174754125 38.26147751893967 17.58728420984164 H 0.0 **** 0.06
1623 H 33.880473692062566 38.660423755692705 18.8782642064254 H 0.0 **** 0.06
1624 H 33.37441693464623 37.63769219298899 17.511723076184296 H 0.0 **** 0.06
1625 H 33.68861093783584 39.37157546050787 17.257489118566752 H 0.0 **** 0.06
1626 C 83.46218777267687 69.65551898416425 19.897593803313896 C 0.0 **** -0.24
1627 H 84.47838330248314 69.33982800774781 20.13177430817234 H 0.0 **** 0.06
1628 H 83.35675244379894 69.76763984369283 18.81888857577121 H 0.0 **** 0.06
1629 H 83.2580162751699 70.60960226266342 20.383981331408222 H 0.0 **** 0.06
1630 H 82.75701267297273 68.90572035693137 20.25643194442378 H 0.0 **** 0.06
1631 C 92.05336263053219 50.009775253391126 78.77040426067799 C 0.0 **** -0.24
1632 H 92.42321837469677 50.601369670850715 79.60864739481286 H 0.0 **** 0.06
1633 H 92.77222950862091 49.225638489541154 78.53455344053366 H 0.0 **** 0.06
1634 H 91.91831219616027 50.654763410371686 77.90254694046126 H 0.0 **** 0.06
1635 H 91.09750492858974 49.558361829028456 79.03949676270959 H 0.0 **** 0.06
1636 C 68.4496110272315 35.928415773410904 23.812905103007452 C 0.0 **** -0.24
1637 H 68.73609220615421 36.93060095928806 24.12887819834374 H 0.0 **** 0.06
1638 H 68.64729960181572 35.813030012675284 22.74708847968094 H 0.0 **** 0.06
1639 H 67.38795279022818 35.77651567705655 24.005513026037214 H 0.0 **** 0.06
1640 H 69.02952746072259 35.192553626552865 24.37161668994552 H 0.0 **** 0.06
1641 C 46.840802404040076 88.3169388212403 55.29959305568818 C 0.0 **** -0.24
1642 H 46.73604804541671 89.39726682645286 55.19286111997353 H 0.0 **** 0.06
1643 H 47.22423710986615 87.8957101289828 54.36973662852294 H 0.0 **** 0.06
1644 H 45.868697309961675 87.87837056429014 55.524257830770395 H 0.0 **** 0.06
1645 H 47.535026461087796 88.09793359025895 56.11133464865479 H 0.0 **** 0.06
1646 C 86.53088194535746 17.607140181184974 29.841496742982983 C 0.0 **** -0.24
1647 H 85.73276748770877 18.072698026750256 29.264921675580716 H 0.0 **** 0.06
1648 H 87.30242082428225 18.34687146213709 30.057070727097177 H 0.0 **** 0.06
1649 H 86.96374554540773 16.78702518805317 29.267964484468692 H 0.0 **** 0.06
1650 H 86.12480978315327 17.221434497371344 30.777322743375038 H 0.0 **** 0.06
1651 C 20.607334361545327 118.41151913428956 72.28120560077744 C 0.0 **** -0.24
1652 H 20.27457598803104 119.44979444330019 72.25620515033225 H 0.0 **** 0.06
1653 H 21.604406591649287 118.36008318254252 72.71913486850818 H 0.0 **** 0.06
1654 H 20.635919705674034 118.01501101551716 71.2654487461019 H 0.0 **** 0.06
1655 H 19.9145215147665 117.82286831175341 72.88154984513514 H 0.0 **** 0.06
1656 C 57.88726145849125 13.787382152081278 74.17896808475155 C 0.0 **** -0.24
1657 H 58.837811614685904 13.498423681538071 74.62928708562526 H 0.0 **** 0.06
1658 H 57.90689741158934 14.851307131779464 73.9417850341946 H 0.0 **** 0.06
1659 H 57.077419182231495 13.586294221732885 74.87972110672257 H 0.0 **** 0.06
1660 H 57.72874509633226 13.214391483613554 73.26601304691167 H 0.0 **** 0.06
1661 C 86.85272133695594 52.409950377421524 46.994925340155625 C 0.0 **** -0.24
1662 H 87.77281987876749 52.89350006935513 46.666290144299545 H 0.0 **** 0.06
1663 H 86.63993666640349 52.69586246260775 48.024580924772174 H 0.0 **** 0.06
1664 H 86.97013274745333 51.32810511704713 46.934302845941595 H 0.0 **** 0.06
1665 H 86.029668138325 52.7221999060053 46.35204014249532 H 0.0 **** 0.06
1666 C 115.8320305158714 45.918758673651595 113.3790069105271 C 0.0 **** -0.24
1667 H 116.22254841529764 45.093687763780345 112.78228039298736 H 0.0 **** 0.06
1668 H 115.51157440728457 45.543539140697106 114.35115088926409 H 0.0 **** 0.06
1669 H 114.98273282829905 46.368974876412025 112.86411607748542 H 0.0 **** 0.06
1670 H 116.61176285691016 46.66746648106728 113.51678126118742 H 0.0 **** 0.06
1671 C 60.431918616361315 97.54784983032175 91.61790869949999 C 0.0 **** -0.24
1672 H 61.10004727961446 96.75266345013203 91.95034738222702 H 0.0 **** 0.06
1673 H 59.49330915074512 97.4881951854195 92.16929180272113 H 0.0 **** 0.06
1674 H 60.23529305070343 97.43533608235519 90.55205659400355 H 0.0 **** 0.06
1675 H 60.900192646594746 98.51515181522056 91.80121727537578 H 0.0 **** 0.06
1676 C 7.861364066778066 13.374101490978035 113.9379381774524 C 0.0 **** -0.24
1677 H 6.956611869547686 12.78679863725705 113.7771538693618 H 0.0 **** 0.06
1678 H 8.641391567254487 13.033497857221562 113.25634884411556 H 0.0 **** 0.06
1679 H 8.197579556568854 13.248339941098692 114.96692936370923 H 0.0 **** 0.06
1680 H 7.649313225322146 14.426130529599476 113.75133440888115 H 0.0 **** 0.06
1681 C 67.55189254197745 54.942686048499525 68.36063790418062 C 0.0 **** -0.24
1682 H 67.27309848619382 55.606247399882335 67.54168677765898 H 0.0 **** 0.06
1683 H 66.65113120297599 54.58937406014539 68.86374964275743 H 0.0 **** 0.06
1684 H 68.17672285721333 55.484041974624716 69.07080867971565 H 0.0 **** 0.06
1685 H 68.10444162957357 54.09072569574428 67.96453467634683 H 0.0 **** 0.06
1686 C 83.66047491095382 41.93734706920384 107.74298061859875 C 0.0 **** -0.24
1687 H 84.37878541827367 42.682051131006745 108.08705274384441 H 0.0 **** 0.06
1688 H 82.83391573202691 42.43680049716096 107.23718528005719 H 0.0 **** 0.06
1689 H 83.27959084009275 41.37876429055876 108.59857653152967 H 0.0 **** 0.06
1690 H 84.15033676637131 41.25338680194352 107.05079974847305 H 0.0 **** 0.06
1691 C 110.81252150280753 108.81723618308337 64.99628614514279 C 0.0 **** -0.24
1692 H 111.6771892731463 109.32393868537162 65.42429771133061 H 0.0 **** 0.06
1693 H 111.04600762436222 107.76290257110432 64.85015079707463 H 0.0 **** 0.06
1694 H 110.56265677692892 109.27146706849942 64.03717840474351 H 0.0 **** 0.06
1695 H 109.96358353181175 108.9116237412396 65.67429505481022 H 0.0 **** 0.06
1696 C 19.08767552483198 79.26032847856001 92.58336734573967 C 0.0 **** -0.24
1697 H 19.94961792984185 78.94700822034596 93.1733448635317 H 0.0 **** 0.06
1698 H 18.171487079610813 78.9850540148802 93.1052268843496 H 0.0 **** 0.06
1699 H 19.115036693934428 78.76921813378189 91.61060853295436 H 0.0 **** 0.06
1700 H 19.11590600480497 80.34170073038851 92.44547660040993 H 0.0 **** 0.06
1701 C 41.65801373934869 35.3273513624182 51.20151714268019 C 0.0 **** -0.24
1702 H 42.2393029448516 35.58954051927191 50.318373139009196 H 0.0 **** 0.06
1703 H 41.07303023844989 34.42977576083911 50.998691854424266 H 0.0 **** 0.06
1704 H 40.988007945753765 36.150081373486415 51.45306499959386 H 0.0 **** 0.06
1705 H 42.33240401929598 35.140582597986395 52.037419590886316 H 0.0 **** 0.06
1706 C 71.71440347841595 59.01900579618402 32.97258092039397 C 0.0 **** -0.24
1707 H 71.60579371378854 58.83933634372849 31.902433464304906 H 0.0 **** 0.06
1708 H 71.96509517203216 58.08452749081752 33.4739845964907 H 0.0 **** 0.06
1709 H 70.77806058280588 59.40641036837289 33.37259256785509 H 0.0 **** 0.06
1710 H 72.50911514160232 59.74579509444172 33.1391233008044 H 0.0 **** 0.06
1711 C 45.35147545529785 16.428441457793582 16.514937555362565 C 0.0 **** -0.24
1712 H 45.99632086341556 17.24366054157929 16.185524446933158 H 0.0 **** 0.06
1713 H 45.446869397501864 15.589368385199691 15.825147639988188 H 0.0 **** 0.06
1714 H 44.315595647654675 16.768801155767534 16.532173141439557 H 0.0 **** 0.06
1715 H 45.64772674107224 16.11238228994057 17.514800769342855 H 0.0 **** 0.06
1716 C 117.11613632278787 63.43333815569473 11.372631147638174 C 0.0 **** -0.24
1717 H 117.79145667250069 63.44007069009734 12.228312639529975 H 0.0 **** 0.06
1718 H 116.09612922153315 63.61629806054414 11.712601685975528 H 0.0 **** 0.06
1719 H 117.16625627988927 62.462958342784134 10.878947338563478 H 0.0 **** 0.06
1720 H 117.41070311722822 64.21402552935318 10.670662926483374 H 0.0 **** 0.06
1721 C 53.23272527899351 79.4425790775143 80.51559278381487 C 0.0 **** -0.24
1722 H 54.288171019775945 79.31606931139675 80.27123575191547 H 0.0 **** 0.06
1723 H 52.67372921676716 78.57179492596796 80.17053168430851 H 0.0 **** 0.06
1724 H 52.85107142962468 80.33776752406013 80.02486915795174 H 0.0 **** 0.06
1725 H 53.11991068866391 79.54278030019148 81.59453079149282 H 0.0 **** 0.06
1726 C 15.633060015012578 76.81902829680268 3.2880975128060896 C 0.0 **** -0.24
1727 H 14.558711405998338 76.76351110004515 3.110213675224614 H 0.0 **** 0.06
1728 H 15.865511700874947 77.74560772816608 3.814271961111956 H 0.0 **** 0.06
1729 H 16.160152906473193 76.7996725283756 2.3345273199845877 H 0.0 **** 0.06
1730 H 15.944732823108556 75.96898782223974 3.8940256377651963 H 0.0 **** 0.06
1731 C 51.87172336321183 123.7876196758446 65.98763239671067 C 0.0 **** -0.24
1732 H 52.287503402608934 123.34451683112701 65.08293326827643 H 0.0 **** 0.06
1733 H 51.838318468892155 124.87236134334754 65.87744876641219 H 0.0 **** 0.06
1734 H 52.49963238385402 123.52801698284964 66.84012898165531 H 0.0 **** 0.06
1735 H 50.86389353910539 123.40699208970437 66.14802035741806 H 0.0 **** 0.06
1736 C 12.143718093200697 5.834849444735259 76.37828251130554 C 0.0 **** -0.24
1737 H 13.209957678995629 5.6114827308290565 76.35502050630498 H 0.0 **** 0.06
1738 H 11.782932674198424 5.991040529697752 75.36128694930858 H 0.0 **** 0.06
1739 H 11.975660646742803 6.7379220190630456 76.96556213657942 H 0.0 **** 0.06
1740 H 11.607105728030838 5.001044713768213 76.83117273799684 H 0.0 **** 0.06
1741 C 113.94977260527253 17.756259952871005 15.187510828366385 C 0.0 **** -0.24
1742 H 113.21014409685196 18.300047661201518 15.77408498083875 H 0.0 **** 0.06
1743 H 114.71973755336239 17.360015874842873 15.850490002857754 H 0.0 **** 0.06
1744 H 114.40514791696316 18.430454524456536 14.462566915255252 H 0.0 **** 0.06
1745 H 113.4633950165798 16.93378254530245 14.662799978663656 H 0.0 **** 0.06
1746 C 31.164845720929492 87.22503213204027 117.93874263634211 C 0.0 **** -0.24
1747 H 30.485207524167294 88.07011108835158 118.04081662652382 H 0.0 **** 0.06
1748 H 31.817533408148932 87.38543595225423 117.08002605952757 H 0.0 **** 0.06
1749 H 30.588446338746138 86.31130242686515 117.79226563641407 H 0.0 **** 0.06
1750 H 31.769339984229504 87.13245491711399 118.8417558823441 H 0.0 **** 0.06
1751 C 27.846942625210893 80.18574938573101 30.22368748666338 C 0.0 **** -0.24
1752 H 27.013323280594108 79.53017970949185 30.47459159274898 H 0.0 **** 0.06
1753 H 28.520402831584228 79.67092211087913 29.537939738272613 H 0.0 **** 0.06
1754 H 28.387475322194256 80.44994113983276 31.133375291801514 H 0.0 **** 0.06
1755 H 27.467141710226237 81.0916646054298 29.750737580094636 H 0.0 **** 0.06
1756 C 98.25596756673815 64.40629578645698 122.9845827437316 C 0.0 **** -0.24
1757 H 98.66239508739591 63.39492943514469 122.96212155641419 H 0.0 **** 0.06
1758 H 97.52758495383492 64.52292891515381 122.181627432793 H 0.0 **** 0.06
1759 H 99.06390680792691 65.12571882167609 122.8504730956283 H 0.0 **** 0.06
1760 H 97.7697683535514 64.57966484304373 123.94454013601293 H 0.0 **** 0.06
1761 C 36.54519725385476 41.82352962620311 88.6682589804106 C 0.0 **** -0.24
1762 H 36.24784670064903 42.851601800687604 88.46522480202208 H 0.0 **** 0.06
1763 H 36.257555199222196 41.55510420730431 89.68465975618653 H 0.0 **** 0.06
1764 H 37.62533955992559 41.72972289206521 88.55929309754265 H 0.0 **** 0.06
1765 H 36.049819379241804 41.1561589465239 87.96224417511411 H 0.0 **** 0.06
1766 C 23.440528758808448 47.618107288478825 65.48959771681771 C 0.0 **** -0.24
1767 H 23.412930127547952 47.797184454703824 64.41472777348324 H 0.0 **** 0.06
1768 H 24.15749714189633 46.826452642951494 65.70819778716563 H 0.0 **** 0.06
1769 H 22.450246790730212 47.317215380853156 65.83221472797769 H 0.0 **** 0.06
1770 H 23.740239375548697 48.531925948362584 66.00259158375354 H 0.0 **** 0.06
1771 C 44.913708609550596 44.87157165976339 100.23215073088491 C 0.0 **** -0.24
1772 H 45.27002135824799 45.2656209341003 99.27956730435831 H 0.0 **** 0.06
1773 H 44.49315611183724 45.683791662744056 100.82565221227968 H 0.0 **** 0.06
1774 H 45.74526558855749 44.41865947201916 100.77197314960763 H 0.0 **** 0.06
1775 H 44.146761347901844 44.11942771188359 100.04931461123604 H 0.0 **** 0.06
1776 C 33.42736203029784 43.23270496621899 44.24330458648174 C 0.0 **** -0.24
1777 H 32.79324668169795 43.34551966983258 43.364174759474224 H 0.0 **** 0.06
1778 H 34.32121470155778 42.66788798169597 43.97668512848051 H 0.0 **** 0.06
1779 H 32.87945775028257 42.700595796802304 45.02047535124754 H 0.0 **** 0.06
1780 H 33.71665639791411 44.21750001026152 44.61137148872126 H 0.0 **** 0.06
1781 C 42.712153438861606 17.131259732223924 121.23971491309618 C 0.0 **** -0.24
1782 H 42.74676732895898 16.799520897148852 122.27743786832039 H 0.0 **** 0.06
1783 H 42.07551671779146 16.45753133261053 120.66372047682414 H 0.0 **** 0.06
1784 H 43.71887923209539 17.124237808156437 120.82250687097634 H 0.0 **** 0.06
1785 H 42.30653066619686 18.14172652448454 121.1949409590471 H 0.0 **** 0.06
1786 C 3.5212807821749976 108.44973922052269 8.841193899998927 C 0.0 **** -0.24
1787 H 2.8219373175407583 108.10203214190948 9.602791769912074 H 0.0 **** 0.06
1788 H 3.608877446264657 107.69696219588133 8.058274210523592 H 0.0 **** 0.06
1789 H 4.497732248356414 108.61726546341954 9.295770848853095 H 0.0 **** 0.06
1790 H 3.1552746425157494 109.38204923093129 8.411083146527005 H 0.0 **** 0.06
1791 C 12.70788554828211 80.86226283273827 97.36725397236063 C 0.0 **** -0.24
1792 H 11.849505230575602 81.28394179143577 97.89156577818692 H 0.0 **** 0.06
1793 H 13.05627471657251 81.5699592196974 96.61460362195326 H 0.0 **** 0.06
1794 H 12.414681326559172 79.93071820242217 96.88384673521531 H 0.0 **** 0.06
1795 H 13.508113678619551 80.66597839648938 98.0806746432559 H 0.0 **** 0.06
1796 C 120.13674800347398 75.79580188450046 81.59514524173146 C 0.0 **** -0.24
1797 H 119.8233369956104 76.0547637773045 80.58407553313018 H 0.0 **** 0.06
1798 H 120.79233823971357 76.57547642214384 81.98332919210036 H 0.0 **** 0.06
1799 H 120.67244056446576 74.84585667749926 81.57650718801106 H 0.0 **** 0.06
1800 H 119.26037189631626 75.70602791755837 82.23590040828917 H 0.0 **** 0.06
1801 C 37.40767024205974 76.70086216084673 109.60338700064383 C 0.0 **** -0.24
1802 H 36.36665853696266 76.96620357445045 109.42062694067724 H 0.0 **** 0.06
1803 H 37.45253372312146 75.73338395021028 110.10509804788697 H 0.0 **** 0.06
1804 H 37.869767233314974 77.45884805863483 110.23533511614562 H 0.0 **** 0.06
1805 H 37.94095165352272 76.64407951360147 108.65436835903444 H 0.0 **** 0.06
1806 C 50.577349881567244 97.18465374106208 18.65964681595716 C 0.0 **** -0.24
1807 H 50.869219556221 96.13582460165176 18.61212625728217 H 0.0 **** 0.06
1808 H 51.26555038332711 97.78004738108166 18.05798802781902 H 0.0 **** 0.06
1809 H 50.61152170962504 97.52567390277108 19.694443535776998 H 0.0 **** 0.06
1810 H 49.56524875929871 97.29716462458072 18.27284292867438 H 0.0 **** 0.06
1811 C 119.56004908574647 19.307412159547237 13.369048254133986 C 0.0 **** -0.24
1812 H 119.91885047065799 20.32310793226754 13.540037878289468 H 0.0 **** 0.06
1813 H 120.37556260216178 18.602632406334468 13.534948752242542 H 0.0 **** 0.06
1814 H 119.20301401684232 19.216177688006127 12.343032192115999 H 0.0 **** 0.06
1815 H 118.74488946131771 19.08977102737807 14.058758919507198 H 0.0 **** 0.06
1816 C 26.588786675324855 34.162433961006926 9.893154251929953 C 0.0 **** -0.24
1817 H 26.255295809394795 33.57855648289397 9.035996406064712 H 0.0 **** 0.06
1818 H 27.391406256245887 33.6303111006515 10.404529669185937 H 0.0 **** 0.06
1819 H 25.75510445764064 34.31008510535443 10.579465983620267 H 0.0 **** 0.06
1820 H 26.954664623335077 35.131137394890516 9.552277866669705 H 0.0 **** 0.06
1821 C 73.27494993218556 44.25120139060476 30.05056934983989 C 0.0 **** -0.24
1822 H 73.36426109218385 43.8950216563659 31.077273916311718 H 0.0 **** 0.06
1823 H 74.23550089915919 44.1481907519981 29.54543137560924 H 0.0 **** 0.06
1824 H 72.97702156651847 45.300140846624274 30.05599753583425 H 0.0 **** 0.06
1825 H 72.5230477167404 43.662495507159704 29.526559747549143 H 0.0 **** 0.06
1826 C 113.52681751616659 41.59450582622273 65.20482530259545 C 0.0 **** -0.24
1827 H 114.38776892012619 41.482784382847825 64.5444286040152 H 0.0 **** 0.06
1828 H 112.65752034758741 41.89392396675359 64.62012549188904 H 0.0 **** 0.06
1829 H 113.74189827588613 42.356205358008395 65.95437036847869 H 0.0 **** 0.06
1830 H 113.32378076928235 40.6445968863641 65.70013009161943 H 0.0 **** 0.06
1831 C 87.05595425595101 57.25302383092918 22.448721412662707 C 0.0 **** -0.24
1832 H 88.03236766490741 57.299226027277484 22.92868474448929 H 0.0 **** 0.06
1833 H 86.97903143397372 56.33105732098403 21.87040881255109 H 0.0 **** 0.06
1834 H 86.93634707482607 58.108661797375134 21.784809180990152 H 0.0 **** 0.06
1835 H 86.27547857937623 57.27138553538137 23.20863009852806 H 0.0 **** 0.06
1836 C 30.890864566193983 54.7306188536743 48.653215177745324 C 0.0 **** -0.24
1837 H 30.170461184355048 54.31723008612248 47.94803268328836 H 0.0 **** 0.06
1838 H 30.390317511053667 54.95248900625688 49.596192926764544 H 0.0 **** 0.06
1839 H 31.316307265165193 55.647103972804175 48.24258843535124 H 0.0 **** 0.06
1840 H 31.687070747154223 54.00599912354336 48.82542058344336 H 0.0 **** 0.06
1841 C 38.7504211263697 55.28072948573316 75.38424299264707 C 0.0 **** -0.24
1842 H 39.66416996652265 55.05412014261074 75.93382099594868 H 0.0 **** 0.06
1843 H 38.23815272505368 56.11710627321669 75.85905308438694 H 0.0 **** 0.06
1844 H 38.09867166069404 54.406273499172514 75.38570621921997 H 0.0 **** 0.06
1845 H 39.0016510397233 55.5437195692858 74.35570978266941 H 0.0 **** 0.06
1846 C 30.735685893865906 4.614624708127593 106.3288900259196 C 0.0 **** -0.24
1847 H 31.206586883684878 3.681812078458478 106.01719367825049 H 0.0 **** 0.06
1848 H 31.085713737517267 5.426769950591478 105.69186702013475 H 0.0 **** 0.06
1849 H 30.999319314524755 4.8255018563108365 107.36547768526333 H 0.0 **** 0.06
1850 H 29.65353974863862 4.521965106032411 106.2406200488202 H 0.0 **** 0.06
1851 C 101.2562344667179 23.320403020619096 92.67202106254334 C 0.0 **** -0.24
1852 H 102.12962746527808 23.853507304078732 93.04909036488337 H 0.0 **** 0.06
1853 H 101.30914122720333 23.26119679683697 91.58569693329508 H 0.0 **** 0.06
1854 H 100.3517149214955 23.853204339892187 92.96469977997788 H 0.0 **** 0.06
1855 H 101.23663837531967 22.313901231129762 93.09108537568599 H 0.0 **** 0.06
1856 C 120.15178501594703 13.924187461605811 105.80736964686699 C 0.0 **** -0.24
1857 H 119.80525313007305 13.599535472564298 106.78836476958307 H 0.0 **** 0.06
1858 H 119.458759109484 14.661938848956709 105.4029952048788 H 0.0 **** 0.06
1859 H 120.2013206677807 13.065756304717098 105.13659774899659 H 0.0 **** 0.06
1860 H 121.14279573506346 14.368542287320736 105.90125928849017 H 0.0 **** 0.06
1861 C 69.98173301240774 17.525848067480183 122.86826991563443 C 0.0 **** -0.24
1862 H 69.93617662317132 16.45531393107936 123.06985865626633 H 0.0 **** 0.06
1863 H 69.00391813650504 17.874594669048122 122.53722076139509 H 0.0 **** 0.06
1864 H 70.71934444880952 17.717302055026096 122.08958423347286 H 0.0 **** 0.06
1865 H 70.26759178428398 18.05383186651966 123.7785301139711 H 0.0 **** 0.06
1866 C 1.928553459271825 94.62994545379347 30.386006791980577 C 0.0 **** -0.24
1867 H 1.2757866190161735 93.95365776923163 30.93856191477937 H 0.0 **** 0.06
1868 H 1.323617601939418 95.34718794897414 29.832212187936875 H 0.0 **** 0.06
1869 H 2.540553836600111 94.05553402865057 29.691402804781973 H 0.0 **** 0.06
1870 H 2.5743930536359017 95.16120344507276 31.085335676217312 H 0.0 **** 0.06
1871 C 87.71590909769833 106.06562533407936 61.039070361458556 C 0.0 **** -0.24
1872 H 87.99930330238534 107.06456002144112 61.37008381050073 H 0.0 **** 0.06
1873 H 88.5713168210238 105.39629097200935 61.13032190004293 H 0.0 **** 0.06
1874 H 87.39341990748055 106.10595939789941 59.99870860422281 H 0.0 **** 0.06
1875 H 86.89776912819885 105.69671572543217 61.65843652897172 H 0.0 **** 0.06
1876 C 90.86529656223246 90.51836419827958 75.32939199235854 C 0.0 **** -0.24
1877 H 89.82933801716979 90.46473455959213 74.99528057209946 H 0.0 **** 0.06
1878 H 91.52855857744078 90.28055085296606 74.49676596182157 H 0.0 **** 0.06
1879 H 91.02421194405377 89.80401894437031 76.13645977285539 H 0.0 **** 0.06
1880 H 91.07941355044755 91.52560464036875 75.68817935020407 H 0.0 **** 0.06
1881 C 65.63264624122915 61.20922261711169 111.44949794236445 C 0.0 **** -0.24
1882 H 65.00862454305744 60.964231213622384 110.59015585201493 H 0.0 **** 0.06
1883 H 65.53183605058983 62.26972747905779 111.68002005283248 H 0.0 **** 0.06
1884 H 66.67336767775146 60.98379954897115 111.21887056859791 H 0.0 **** 0.06
1885 H 65.31559017784335 60.617224966385166 112.30898850511548 H 0.0 **** 0.06
1886 C 0.5634562407111847 123.35386678548275 50.37077347201131 C 0.0 **** -0.24
1887 H 1.0440576759537468 124.14292064421846 50.94990128362912 H 0.0 **** 0.06
1888 H -0.5127209152452714 123.52609586161147 50.345621927705 H 0.0 **** 0.06
1889 H 0.7676827396652861 122.38855356593177 50.83402247011185 H 0.0 **** 0.06
1890 H 0.9564171169225837 123.35932752271262 49.354145403023836 H 0.0 **** 0.06
1891 C 62.122112097627564 25.48349214205023 29.959352429706627 C 0.0 **** -0.24
1892 H 61.52938653231823 26.06340489891697 29.25235718819542 H 0.0 **** 0.06
1893 H 62.601243246178626 24.65463207531323 29.436520585560515 H 0.0 **** 0.06
1894 H 61.47369274940884 25.092963602209856 30.742975079774055 H 0.0 **** 0.06
1895 H 62.88533040679128 26.12306928102727 30.403426340588766 H 0.0 **** 0.06
1896 C 70.904547147995 95.65147383466771 76.75371377307962 C 0.0 **** -0.24
1897 H 70.84869324140442 96.73191116208736 76.88222902334354 H 0.0 **** 0.06
1898 H 70.45281672748945 95.37478739138098 75.80087907167788 H 0.0 **** 0.06
1899 H 70.36685140297521 95.16153662466533 77.56536734094004 H 0.0 **** 0.06
1900 H 71.94754175576884 95.33677926442957 76.7664112242293 H 0.0 **** 0.06
1901 C 112.25959823992719 61.328433786784856 2.941459635529455 C 0.0 **** -0.24
1902 H 111.6333394317339 62.09768460256328 2.490000028883628 H 0.0 **** 0.06
1903 H 112.39652567354919 60.51031647889357 2.233781250332953 H 0.0 **** 0.06
1904 H 111.77903569784753 60.95208302122471 3.844432194775834 H 0.0 **** 0.06
1905 H 113.23040676749751 61.754469438657665 3.19692234126056 H 0.0 **** 0.06
1906 C 84.2591071008685 36.62915365857549 67.53329259730964 C 0.0 **** -0.24
1907 H 84.39819244356443 37.453404396270344 68.23318739075359 H 0.0 **** 0.06
1908 H 83.7205789381191 36.98607091373452 66.6551432809112 H 0.0 **** 0.06
1909 H 83.68414872933909 35.836926611849094 68.01496468229499 H 0.0 **** 0.06
1910 H 85.23149947232872 36.240089385999795 67.2308495610194 H 0.0 **** 0.06
1911 C 79.80878526677242 124.00627643461266 102.41380015653282 C 0.0 **** -0.24
1912 H 80.67717387218592 123.37674548932077 102.21594969850243 H 0.0 **** 0.06
1913 H 79.57115234317892 124.58644379862108 101.52212244955247 H 0.0 **** 0.06
1914 H 80.03081931791785 124.68211305262153 103.23932267160302 H 0.0 **** 0.06
1915 H 78.95779137930221 123.378468223986 102.67680952772052 H 0.0 **** 0.06
1916 C 105.78133309209575 6.787802905688874 106.21766951075293 C 0.0 **** -0.24
1917 H 106.7994699668759 6.973282724134911 106.55940659018356 H 0.0 **** 0.06
1918 H 105.56363877003609 7.428130368304071 105.36155109004102 H 0.0 **** 0.06
1919 H 105.08086969672279 7.008100522609169 107.02401916647256 H 0.0 **** 0.06
1920 H 105.68079879632553 5.7424479922103195 105.92534147670128 H 0.0 **** 0.06
1921 C 22.185986333311142 63.87841368435174 101.42807177780665 C 0.0 **** -0.24
1922 H 21.825561815584557 63.970795979376646 100.40349020892245 H 0.0 **** 0.06
1923 H 23.20014308332808 63.47800226532958 101.42202771820426 H 0.0 **** 0.06
1924 H 21.531834521112586 63.206533442647086 101.98421661776399 H 0.0 **** 0.06
1925 H 22.1859103519973 64.86044236113497 101.90203952858322 H 0.0 **** 0.06
1926 C 14.409959315176106 120.29418470108402 22.73929130997888 C 0.0 **** -0.24
1927 H 13.366049066184921 120.12876237572377 22.469505006289474 H 0.0 **** 0.06
1928 H 14.96949226084714 119.36895303862937 22.60419903831233 H 0.0 **** 0.06
1929 H 14.469251983984293 120.60734494500772 23.78192488824881 H 0.0 **** 0.06
1930 H 14.831028381445584 121.07074244702665 22.101530727259473 H 0.0 **** 0.06
1931 C 56.28864000699758 48.830946039486875 82.21750259894176 C 0.0 **** -0.24
1932 H 56.89645449542479 49.064035493785475 81.34354119654435 H 0.0 **** 0.06
1933 H 55.606700854900765 49.658191441844124 82.41659251077584 H 0.0 **** 0.06
1934 H 56.93631525285622 48.67809698172486 83.08065301242559 H 0.0 **** 0.06
1935 H 55.71508942480844 47.92346024059309 82.02922367602136 H 0.0 **** 0.06
1936 C 35.66736138100441 33.51827857049807 107.00550892209051 C 0.0 **** -0.24
1937 H 34.927195324194315 34.241238767786854 107.34767619313732 H 0.0 **** 0.06
1938 H 36.063008245890046 32.97099389930844 107.86195029872245 H 0.0 **** 0.06
1939 H 36.47999239070185 34.040656546467574 106.50113031937786 H 0.0 **** 0.06
1940 H 35.198548812672186 32.819176780201815 106.31283137670255 H 0.0 **** 0.06
1941 C 5.186611894825205 118.84534156395794 112.03747714036712 C 0.0 **** -0.24
1942 H 5.890444094536207 119.42130272949755 111.43714252876998 H 0.0 **** 0.06
1943 H 5.151011555588468 117.81893264830104 111.67170933728136 H 0.0 **** 0.06
1944 H 4.195119801084218 119.29304713822886 111.96312054422361 H 0.0 **** 0.06
1945 H 5.508749629023839 118.84951702137828 113.0792345994563 H 0.0 **** 0.06
1946 C 83.00650837632188 58.71701037551418 29.758327453682853 C 0.0 **** -0.24
1947 H 82.68604967455653 57.844761409323155 30.32879806106473 H 0.0 **** 0.06
1948 H 83.87549005469262 58.45574863186033 29.15335892624178 H 0.0 **** 0.06
1949 H 83.2701142383768 59.52169228687768 30.44482485905698 H 0.0 **** 0.06
1950 H 82.1953846997975 59.044169706564105 29.10901183077783 H 0.0 **** 0.06
1951 C 83.89785094382904 105.21761977090412 12.179650825299689 C 0.0 **** -0.24
1952 H 84.300981279214 105.81692877283254 11.363310602317767 H 0.0 **** 0.06
1953 H 84.6520426903187 105.11314711467756 12.960247412240278 H 0.0 **** 0.06
1954 H 83.62158698178678 104.23244306212166 11.806268063670416 H 0.0 **** 0.06
1955 H 83.01657376363192 105.71038557426286 12.590529288787252 H 0.0 **** 0.06
1956 C 117.04648336372195 63.2327128494817 4.104390884425939 C 0.0 **** -0.24
1957 H 117.20343158705128 62.19834747018422 3.797599009411581 H 0.0 **** 0.06
1958 H 116.6426729224152 63.25442872465102 5.1161607236740245 H 0.0 **** 0.06
1959 H 116.34299802146896 63.710413052436394 3.421380140504848 H 0.0 **** 0.06
1960 H 117.99598459478702 63.76738043230668 4.079739489993322 H 0.0 **** 0.06
1961 C 16.126621488922865 114.94901737658661 25.644793656569703 C 0.0 **** -0.24
1962 H 15.29194893380864 114.25066708354541 25.579976018297742 H 0.0 **** 0.06
1963 H 15.908056819911451 115.8331565810404 25.0444369658409 H 0.0 **** 0.06
1964 H 17.030645833513006 114.46938399857981 25.269679661009405 H 0.0 **** 0.06
1965 H 16.27474505575728 115.24217450510426 26.684497967898466 H 0.0 **** 0.06
1966 C 62.63993714806304 80.68488233924029 98.73186459289434 C 0.0 **** -0.24
1967 H 62.40465911955107 79.79100088990418 99.30996401032786 H 0.0 **** 0.06
1968 H 61.75222753425169 81.31222767675115 98.65441687783724 H 0.0 **** 0.06
1969 H 62.969501265845395 80.3952846029216 97.73365900641149 H 0.0 **** 0.06
1970 H 63.4352834554677 81.24048841482352 99.22957524650413 H 0.0 **** 0.06
1971 C 122.34424683773771 74.65234862547611 111.23794782853467 C 0.0 **** -0.24
1972 H 121.46016446403631 75.21858676924892 110.94499488823145 H 0.0 **** 0.06
1973 H 122.5126697819877 74.77091299378814 112.3079664591528 H 0.0 **** 0.06
1974 H 123.21038112937545 75.02242534781 110.68903951751216 H 0.0 **** 0.06
1975 H 122.1916866884364 73.59752219323111 111.00763423214026 H 0.0 **** 0.06
1976 C 14.2530555828357 99.96497112297385 16.04096245866484 C 0.0 **** -0.24
1977 H 15.08637761654171 99.86465705990804 15.346040774917231 H 0.0 **** 0.06
1978 H 13.314685887145544 99.96584697935572 15.48612620432699 H 0.0 **** 0.06
1979 H 14.350254290884209 100.9019296702329 16.591314993727117 H 0.0 **** 0.06
1980 H 14.26179181322972 99.12996789755857 16.741304505029756 H 0.0 **** 0.06
1981 C 3.9555327545864145 84.81127542285196 63.35498498544203 C 0.0 **** -0.24
1982 H 3.370609611357736 85.15828071672883 64.20637027553559 H 0.0 **** 0.06
1983 H 3.5092505972958463 83.89926180015112 62.955598930587 H 0.0 **** 0.06
1984 H 4.976419564942944 84.60632392741138 63.67486406902793 H 0.0 **** 0.06
1985 H 3.963795777023222 85.58072210589356 62.58239112023065 H 0.0 **** 0.06
1986 C 25.02570793034056 8.440802097833142 47.98046566322558 C 0.0 **** -0.24
1987 H 25.50697046463128 7.5380368076780115 48.35593587889327 H 0.0 **** 0.06
1988 H 24.012754451839157 8.2039224383646 47.65447332675339 H 0.0 **** 0.06
1989 H 25.59640282626421 8.83167169286041 47.13716910570195 H 0.0 **** 0.06
1990 H 24.988428545587283 9.18937968236358 48.77205114098179 H 0.0 **** 0.06
1991 C 8.434954223814241 99.29073845733984 20.035405646250766 C 0.0 **** -0.24
1992 H 9.267183080750957 99.02402659458795 20.686156421523847 H 0.0 **** 0.06
1993 H 8.530557835238387 98.75986197970661 19.08717417142948 H 0.0 **** 0.06
1994 H 8.446406233559593 100.36534896405652 19.853202961975313 H 0.0 **** 0.06
1995 H 7.495906797539636 99.01261645240953 20.514232135253664 H 0.0 **** 0.06
1996 C 100.9188038382152 22.44220764464069 12.76606577414475 C 0.0 **** -0.24
1997 H 100.79650726766505 21.549186315217867 13.378632618279184 H 0.0 **** 0.06
1998 H 101.96713245462472 22.548679564445123 12.486043304231174 H 0.0 **** 0.06
1999 H 100.60312560641914 23.318135987291896 13.333239932323721 H 0.0 **** 0.06
2000 H 100.3097851096491 22.352207728861885 11.86725943033015 H 0.0 **** 0.06
2001 C 44.71965610797055 64.25000434091152 35.33605261686847 C 0.0 **** -0.24
2002 H 45.52765380037641 63.99042103596935 36.01942140273995 H 0.0 **** 0.06
2003 H 43.77378114522347 63.88359024481349 35.73596637411868 H 0.0 **** 0.06
2004 H 44.904769214550456 63.792855255213624 34.36352723956025 H 0.0 **** 0.06
2005 H 44.67155881811122 65.33316660522837 35.224787807133076 H 0.0 **** 0.06
2006 C 116.251522415431 66.48353209937561 16.50910002611691 C 0.0 **** -0.24
2007 H 116.3993934700984 67.43578427852354 15.998399802291356 H 0.0 **** 0.06
2008 H 116.76460704613038 66.50372307386294 17.47125451640829 H 0.0 **** 0.06
2009 H 116.65720507137536 65.67759966327878 15.898040973484171 H 0.0 **** 0.06
2010 H 115.18621694113443 66.31879889697588 16.66845148725105 H 0.0 **** 0.06
2011 C 3.0986587459519512 65.0346163193255 123.4850075060196 C 0.0 **** -0.24
2012 H 2.8548636249315678 65.93893635072067 124.04183681852663 H 0.0 **** 0.06
2013 H 3.129724745917599 65.26196088277891 122.41921105012528 H 0.0 **** 0.06
2014 H 2.338485981339659 64.27622507143009 123.67421593232467 H 0.0 **** 0.06
2015 H 4.071218536603169 64.66180104664103 123.80640124598682 H 0.0 **** 0.06
2016 C 42.24790756311033 10.262804249489704 101.46182957037752 C 0.0 **** -0.24
2017 H 42.60779017171124 11.078501253037928 102.08796977077657 H 0.0 **** 0.06
2018 H 41.73926307462913 10.671474276549247 100.58838161582901 H 0.0 **** 0.06
2019 H 41.55270346580319 9.647130725368356 102.03214707513416 H 0.0 **** 0.06
2020 H 43.09237066515064 9.653243268756057 101.13884004189595 H 0.0 **** 0.06
2021 C 90.87288148584986 94.01607895584685 76.71844403704075 C 0.0 **** -0.24
2022 H 90.76361165909854 94.52244492392879 77.67826506142275 H 0.0 **** 0.06
2023 H 91.39894805369637 93.07327150014339 76.86346023431635 H 0.0 **** 0.06
2024 H 91.44123423976481 94.64918221355803 76.0369947539393 H 0.0 **** 0.06
2025 H 89.88611522483791 93.8220647436155 76.29689381505447 H 0.0 **** 0.06
2026 C 14.856064065813761 118.63957238737407 81.59972156970275 C 0.0 **** -0.24
2027 H 14.131603130593174 118.31107255024125 82.34505500301049 H 0.0 **** 0.06
2028 H 15.209486064026247 117.77819008754187 81.03225776060114 H 0.0 **** 0.06
2029 H 15.69911525041364 119.11759228769006 82.0990965886291 H 0.0 **** 0.06
2030 H 14.382807329421738 119.35179131544572 80.9236276566541 H 0.0 **** 0.06
2031 C 85.35121653313271 4.716485549426345 58.61387835265644 C 0.0 **** -0.24
2032 H 84.27195511218977 4.578828994528717 58.683736736299124 H 0.0 **** 0.06
2033 H 85.57042989722089 5.766373863093772 58.41350653881253 H 0.0 **** 0.06
2034 H 85.74413090224911 4.101748870604592 57.80386178628565 H 0.0 **** 0.06
2035 H 85.81670967389289 4.421268581871253 59.553350383184394 H 0.0 **** 0.06
2036 C 48.3274799586456 120.06551002998008 120.88259850105979 C 0.0 **** -0.24
2037 H 48.05470711234619 119.77189487137784 119.86844472833306 H 0.0 **** 0.06
2038 H 47.69612639651649 119.53457361649531 121.5960044049319 H 0.0 **** 0.06
2039 H 48.184301890003894 121.13988321842616 121.0001103117055 H 0.0 **** 0.06
2040 H 49.3724477758355 119.81610420359296 121.06522837361595 H 0.0 **** 0.06
2041 C 47.665354083693956 100.76624294293629 118.23687364376048 C 0.0 **** -0.24
2042 H 46.97897901133484 101.23972729450088 117.53499008706922 H 0.0 **** 0.06
2043 H 47.762739488490354 99.7080585245821 117.99207457571993 H 0.0 **** 0.06
2044 H 47.27841506571238 100.87103233335608 119.25047863922512 H 0.0 **** 0.06
2045 H 48.64168751011255 101.24632857535607 118.16905370474069 H 0.0 **** 0.06
2046 C 15.173009532790786 8.563226205413912 61.061962210067776 C 0.0 **** -0.24
2047 H 14.315471718172887 9.21690412098323 60.90377319613113 H 0.0 **** 0.06
2048 H 16.068053963209564 9.03028090438039 60.64844534526462 H 0.0 **** 0.06
2049 H 14.998755708145836 7.608514825115861 60.56560498216646 H 0.0 **** 0.06
2050 H 15.310603153550119 8.39711383496882 62.13115464762093 H 0.0 **** 0.06
2051 C 84.84147335508324 75.50494062510926 15.760990926505727 C 0.0 **** -0.24
2052 H 85.44288997693728 74.98945042966865 16.509368224504794 H 0.0 **** 0.06
2053 H 83.84147899440899 75.68308283793733 16.156650308629974 H 0.0 **** 0.06
2054 H 84.77360271050713 74.8904640187953 14.86346055710608 H 0.0 **** 0.06
2055 H 85.3093235435755 76.45810918316833 15.51299162844563 H 0.0 **** 0.06
2056 C 93.3709082573414 72.6609063078146 84.80171126605157 C 0.0 **** -0.24
2057 H 93.15079545421035 71.86543221258043 84.09010463418663 H 0.0 **** 0.06
2058 H 94.28588503223972 72.42139230260247 85.34243317876077 H 0.0 **** 0.06
2059 H 92.5448168825319 72.75620968737522 85.5072543743244 H 0.0 **** 0.06
2060 H 93.50091094624798 73.60199607957267 84.2658174921963 H 0.0 **** 0.06
2061 C 3.557377582320072 36.3764079485872 94.21728714229798 C 0.0 **** -0.24
2062 H 2.948624732385696 35.58522639961441 94.65465016882214 H 0.0 **** 0.06
2063 H 4.58618025908396 36.02905466014215 94.11558402686117 H 0.0 **** 0.06
2064 H 3.5326260788709476 37.25408617378815 94.86458699637049 H 0.0 **** 0.06
2065 H 3.162734999212546 36.63855885561972 93.23602886876157 H 0.0 **** 0.06
2066 C 65.26260554277425 90.04426643011706 77.49906167938332 C 0.0 **** -0.24
2067 H 64.49556761474821 90.56871923396426 78.06930707047246 H 0.0 **** 0.06
2068 H 64.92584326059705 89.03101332791641 77.2839293236226 H 0.0 **** 0.06
2069 H 66.18422348566006 90.00664022899292 78.07927656038532 H 0.0 **** 0.06
2070 H 65.44368857106048 90.57358279151379 76.5630697541086 H 0.0 **** 0.06
2071 C 113.68670326335418 59.49424119404125 21.671486532302026 C 0.0 **** -0.24
2072 H 114.70276521184675 59.2849081670613 22.006160274034272 H 0.0 **** 0.06
2073 H 113.71029588879321 60.261510348870274 20.897314609627443 H 0.0 **** 0.06
2074 H 113.09171969197216 59.84571535356139 22.515060612377198 H 0.0 **** 0.06
2075 H 113.24167343490782 58.58439183365476 21.268234351862105 H 0.0 **** 0.06
2076 C 26.823895465606284 10.31196065258791 6.688446904134139 C 0.0 **** -0.24
2077 H 27.515791698681454 9.477122800098869 6.575725634200438 H 0.0 **** 0.06
2078 H 25.832399007537305 9.931219737165424 6.933994960199215 H 0.0 **** 0.06
2079 H 26.777162024871274 10.873078473080284 5.75511926284176 H 0.0 **** 0.06
2080 H 27.170992649858817 10.965240560804517 7.4887984505107 H 0.0 **** 0.06
2081 C 26.0154831466155 90.86714650730595 87.39216384404111 C 0.0 **** -0.24
2082 H 25.077576953160722 90.84722219225482 86.83639523560223 H 0.0 **** 0.06
2083 H 26.697991597143847 90.12372958965373 86.98118066851404 H 0.0 **** 0.06
2084 H 25.820302217781347 90.64169525017724 88.44071992664371 H 0.0 **** 0.06
2085 H 26.463380894288086 91.85753504547571 87.31087511496808 H 0.0 **** 0.06
2086 C 73.81224072624684 93.36355714579139 66.10196011898762 C 0.0 **** -0.24
2087 H 74.30965984434522 92.45408940235428 65.76597750599723 H 0.0 **** 0.06
2088 H 74.52794516046654 94.18528445279158 66.11884455363469 H 0.0 **** 0.06
2089 H 73.4122476644742 93.20965419210853 67.1048864451082 H 0.0 **** 0.06
2090 H 72.99701142835451 93.6047407279152 65.41930836658224 H 0.0 **** 0.06
2091 C 108.6760783230317 94.66097884921484 118.61963530031434 C 0.0 **** -0.24
2092 H 109.66654364082859 94.56645412362792 118.17440812019458 H 0.0 **** 0.06
2093 H 107.97926450295398 94.00604112014958 118.0959275443409 H 0.0 **** 0.06
2094 H 108.3379358415088 95.69428209848458 118.53527404323923 H 0.0 **** 0.06
2095 H 108.7222353606264 94.37823808357338 119.67151215463636 H 0.0 **** 0.06
2096 C 37.74083453056596 106.48794122823193 47.059630000046695 C 0.0 **** -0.24
2097 H 38.05064964862953 106.40907965177425 48.10162239129227 H 0.0 **** 0.06
2098 H 38.356124438927225 105.82879933368883 46.44692369381471 H 0.0 **** 0.06
2099 H 37.86153455284261 107.51661574043118 46.721710043913276 H 0.0 **** 0.06
2100 H 36.69397152283537 106.19601081024643 46.96977878400833 H 0.0 **** 0.06
2101 C 51.23056519027938 64.32699980941419 121.67686470344762 C 0.0 **** -0.24
2102 H 51.25000330265996 65.15177131142224 122.38881681146772 H 0.0 **** 0.06
2103 H 52.07121142439698 64.4210603190615 120.98925634884205 H 0.0 **** 0.06
2104 H 50.295997024425645 64.35420943196499 121.11507312627994 H 0.0 **** 0.06
2105 H 51.30390358824647 63.38171324459802 122.21465602000629 H 0.0 **** 0.06
2106 C 39.588421235524436 118.82531635334371 74.39312404497767 C 0.0 **** -0.24
2107 H 38.76546509464356 118.784026506928 73.68059968181922 H 0.0 **** 0.06
2108 H 40.38117230661726 119.46061147237415 73.99770834669043 H 0.0 **** 0.06
2109 H 39.977557033078426 117.82007012817613 74.55729806139291 H 0.0 **** 0.06
2110 H 39.2315036208567 119.23460610041542 75.33795810472621 H 0.0 **** 0.06
2111 C 37.46747264492842 78.50331136245951 93.17166063226148 C 0.0 **** -0.24
2112 H 36.87954515953493 78.10375436194788 92.34528530131584 H 0.0 **** 0.06
2113 H 37.5242933323654 79.58877862814816 93.08415642390425 H 0.0 **** 0.06
2114 H 38.47206046965505 78.08230840727448 93.13959059611787 H 0.0 **** 0.06
2115 H 36.991994028948795 78.2391797593582 94.11576403730396 H 0.0 **** 0.06
2116 C 46.35994618220107 121.71776169941454 8.652860492107521 C 0.0 **** -0.24
2117 H 45.60766308912466 121.39237764454452 7.934168566742187 H 0.0 **** 0.06
2118 H 47.07622282515689 120.91211680534484 8.81749901281492 H 0.0 **** 0.06
2119 H 45.87597443216228 121.97166769159696 9.595346427810767 H 0.0 **** 0.06
2120 H 46.88007804981382 122.59217194901775 8.263641808914883 H 0.0 **** 0.06
2121 C 101.79288738222658 71.71258885549132 101.60984263470547 C 0.0 **** -0.24
2122 H 102.43488143500097 71.81593737248319 100.73431965060473 H 0.0 **** 0.06
2123 H 100.94892804205857 72.39702373928371 101.52362064358366 H 0.0 **** 0.06
2124 H 102.36345754174775 71.94885249905249 102.50780804047699 H 0.0 **** 0.06
2125 H 101.42591263373221 70.68838540976141 101.67110849809538 H 0.0 **** 0.06
2126 C 86.0882141896727 28.939290537923682 65.16084306823151 C 0.0 **** -0.24
2127 H 87.13460110658482 28.974324986721797 64.85752027393129 H 0.0 **** 0.06
2128 H 86.02716938323854 28.788721338537442 66.23906948294018 H 0.0 **** 0.06
2129 H 85.5883767870341 28.116158347940683 64.65037693992389 H 0.0 **** 0.06
2130 H 85.60191353909048 29.87920091142432 64.89731139651614 H 0.0 **** 0.06
2131 C 62.95690428090403 113.06800087481129 14.142789074625512 C 0.0 **** -0.24
2132 H 63.06700565020655 113.00144665306102 13.060234248678853 H 0.0 **** 0.06
2133 H 61.989175514275274 112.66021537660315 14.434913585665171 H 0.0 **** 0.06
2134 H 63.02028306894236 114.111623987906 14.450858275476207 H 0.0 **** 0.06
2135 H 63.752241704735965 112.49797650049442 14.624634885832435 H 0.0 **** 0.06
2136 C 3.5024771900991176 106.33120817606036 82.9242358291584 C 0.0 **** -0.24
2137 H 2.8893713783020676 106.03920619852813 82.07106241915477 H 0.0 **** 0.06
2138 H 4.396189689167919 106.84615942764361 82.5705072131172 H 0.0 **** 0.06
2139 H 3.7911789828564455 105.44251484401013 83.48524218393632 H 0.0 **** 0.06
2140 H 2.930694429117384 106.99831924617106 83.57022968720004 H 0.0 **** 0.06
2141 C 122.37269137141837 45.271529766759386 94.6937508334276 C 0.0 **** -0.24
2142 H 121.76186803211945 46.0448481592731 95.16078004041367 H 0.0 **** 0.06
2143 H 121.83577952671207 44.850013120866265 93.84376782628294 H 0.0 **** 0.06
2144 H 122.5792853553638 44.484450292538895 95.4192648290836 H 0.0 **** 0.06
2145 H 123.31127063690073 45.707211059986776 94.35231937837614 H 0.0 **** 0.06
2146 C 25.20513055720562 54.876141739242144 54.61176747276522 C 0.0 **** -0.24
2147 H 26.10307808591665 54.987569427598814 54.003655776025425 H 0.0 **** 0.06
2148 H 25.46461326980568 54.97711793723656 55.66533816623402 H 0.0 **** 0.06
2149 H 24.7688437094871 53.892926566034106 54.43733587120826 H 0.0 **** 0.06
2150 H 24.483987454431713 55.6466081600055 54.33904265950562 H 0.0 **** 0.06
2151 C 19.079595898813864 6.539388961066493 36.029496244720065 C 0.0 **** -0.24
2152 H 20.14225749118185 6.319247920994229 36.132854772765995 H 0.0 **** 0.06
2153 H 18.838593804424875 6.678206207566376 34.9752322794958 H 0.0 **** 0.06
2154 H 18.84286066736024 7.449869786268252 36.57996313787055 H 0.0 **** 0.06
2155 H 18.497333482383794 5.710017715787956 36.430867041702925 H 0.0 **** 0.06
2156 C 45.44648801044343 84.08802348995931 122.09801764519489 C 0.0 **** -0.24
2157 H 45.59763580140796 83.09296616662859 122.51549690359982 H 0.0 **** 0.06
2158 H 45.03061649640388 84.00157258523798 121.09402817868894 H 0.0 **** 0.06
2159 H 46.401210329474495 84.61070782774773 122.05242145747116 H 0.0 **** 0.06
2160 H 44.756489414487476 84.64684738022272 122.73012404101951 H 0.0 **** 0.06
2161 C 21.15280652612668 74.3037214823801 3.1485734759065735 C 0.0 **** -0.24
2162 H 20.951341048889304 75.27278787145937 2.692162809944392 H 0.0 **** 0.06
2163 H 21.59420428636463 74.4519033280896 4.134643412416068 H 0.0 **** 0.06
2164 H 21.84531063455202 73.74423906475027 2.5208250283623954 H 0.0 **** 0.06
2165 H 20.220667138102186 73.74797026224459 3.2480240894814756 H 0.0 **** 0.06
2166 C 46.30572168674559 42.252091029848785 57.857089719361625 C 0.0 **** -0.24
2167 H 46.00474752626744 42.627671489268366 58.834594466074776 H 0.0 **** 0.06
2168 H 46.18904483192344 41.168686490330984 57.831913985910646 H 0.0 **** 0.06
2169 H 47.349711571679464 42.50934523507314 57.67462829882908 H 0.0 **** 0.06
2170 H 45.681026548577904 42.70348973203255 57.08560610871751 H 0.0 **** 0.06
2171 C 39.24438210065618 109.7356329155796 84.05578607252045 C 0.0 **** -0.24
2172 H 39.69865863016178 109.14117069214606 84.84825322526365 H 0.0 **** 0.06
2173 H 40.025907409674275 110.24525708070243 83.49076642961347 H 0.0 **** 0.06
2174 H 38.573543563337225 110.47440203836891 84.49545140108256 H 0.0 **** 0.06
2175 H 38.68014756791694 109.0827501320155 83.38928160152363 H 0.0 **** 0.06
2176 C 90.06619899609956 111.18102744689324 58.917208066543424 C 0.0 **** -0.24
2177 H 89.25507023161836 111.83424170321986 58.59483096810504 H 0.0 **** 0.06
2178 H 90.96412924277791 111.40533163466323 58.341772935682116 H 0.0 **** 0.06
2179 H 89.7802316930156 110.14182512305158 58.75540903139438 H 0.0 **** 0.06
2180 H 90.263004119074 111.34315422988038 59.97730022997143 H 0.0 **** 0.06
2181 C 57.11404325488979 0.8937476857137074 61.31036925349096 C 0.0 **** -0.24
2182 H 57.6826318178812 1.8063707306399177 61.129471565238276 H 0.0 **** 0.06
2183 H 56.1365702164901 1.149675999371702 61.71962453174811 H 0.0 **** 0.06
2184 H 57.65253486778488 0.26468079145577583 62.01892151922189 H 0.0 **** 0.06
2185 H 56.9842314192166 0.354620506889594 60.37177695708979 H 0.0 **** 0.06
2186 C 85.47175947398497 76.70790674203998 106.89799690535784 C 0.0 **** -0.24
2187 H 85.93123939221886 76.21499671447911 106.04065644158872 H 0.0 **** 0.06
2188 H 85.80334039163387 76.22362858561635 107.81655799528956 H 0.0 **** 0.06
2189 H 84.38613342630128 76.63480454861437 106.81944776172571 H 0.0 **** 0.06
2190 H 85.76494585772917 77.75767558579996 106.91364402342198 H 0.0 **** 0.06
2191 C 84.7472928632415 32.359062514549635 100.30807216274357 C 0.0 **** -0.24
2192 H 85.67764191054506 32.61224691082339 100.81697495033544 H 0.0 **** 0.06
2193 H 84.09463919974748 31.81693096768774 100.99353067720912 H 0.0 **** 0.06
2194 H 84.96555760443951 31.732794814849342 99.44329129086302 H 0.0 **** 0.06
2195 H 84.2518735535139 33.272571991063955 99.9798331822461 H 0.0 **** 0.06
2196 C 119.95871725851009 124.03294367453584 7.059303147413289 C 0.0 **** -0.24
2197 H 120.5558303301161 123.15577765835754 6.810023250577672 H 0.0 **** 0.06
2198 H 120.54735940220057 124.70704298436328 7.683357131372333 H 0.0 **** 0.06
2199 H 119.06617484841442 123.72260357933649 7.602701514280909 H 0.0 **** 0.06
2200 H 119.66746654782764 124.54628441517796 6.143399240021296 H 0.0 **** 0.06
2201 C 76.47093076623996 96.67165603111981 79.38116551608306 C 0.0 **** -0.24
2202 H 76.921836329467 95.83872885142844 79.91972576465271 H 0.0 **** 0.06
2203 H 76.54398192410063 96.49150323903801 78.30826512460537 H 0.0 **** 0.06
2204 H 76.99636349227336 97.59335857551734 79.63097659018963 H 0.0 **** 0.06
2205 H 75.42251368997384 96.7634964244573 79.66349447598253 H 0.0 **** 0.06
2206 C 113.10889753985951 123.72574626232355 102.98857132409694 C 0.0 **** -0.24
2207 H 113.07334815108142 124.65247218177902 103.56104228618034 H 0.0 **** 0.06
2208 H 112.09438878434837 123.36002022860029 102.82571483646743 H 0.0 **** 0.06
2209 H 113.67986708355147 122.97944764853219 103.54107912791588 H 0.0 **** 0.06
2210 H 113.58772593633452 123.9100401778662 102.02740964608884 H 0.0 **** 0.06
2211 C 94.84229845060572 14.133541642810826 87.65643281523555 C 0.0 **** -0.24
2212 H 94.05663627302934 14.298134867551113 88.39316659901374 H 0.0 **** 0.06
2213 H 95.81346908135612 14.336636036505325 88.11039989460943 H 0.0 **** 0.06
2214 H 94.69095476153099 14.802268203352043 86.80802036915776 H 0.0 **** 0.06
2215 H 94.8093845737521 13.098972694051582 87.3143195400041 H 0.0 **** 0.06
2216 C 43.82139979652169 114.54224227500875 27.489551320881276 C 0.0 **** -0.24
2217 H 43.07804087744205 113.74627542664867 27.524321433136606 H 0.0 **** 0.06
2218 H 43.37516682881943 115.43624615917346 27.05239462794512 H 0.0 **** 0.06
2219 H 44.667512160616695 114.22256787149422 26.881837726170318 H 0.0 **** 0.06
2220 H 44.16324563644292 114.7639964147887 28.500215061510914 H 0.0 **** 0.06
2221 C 105.72750434210074 3.3599093202072083 103.78889474713458 C 0.0 **** -0.24
2222 H 106.70485150890563 3.837677691410022 103.85025075377945 H 0.0 **** 0.06
2223 H 104.98396938491851 4.093206163035347 103.47566600352856 H 0.0 **** 0.06
2224 H 105.45533938114316 2.960565613399112 104.76585152155954 H 0.0 **** 0.06
2225 H 105.76535490078581 2.5481708521851516 103.06248873307457 H 0.0 **** 0.06
2226 C 98.21568451756785 113.55169981821444 109.30409679554148 C 0.0 **** -0.24
2227 H 97.21157280176348 113.14441483629582 109.18847551766927 H 0.0 **** 0.06
2228 H 98.81581931438429 113.29105718936557 108.43173711820143 H 0.0 **** 0.06
2229 H 98.67605210556346 113.13573191674413 110.19994614915251 H 0.0 **** 0.06
2230 H 98.15851207350046 114.63616547214991 109.39519695473118 H 0.0 **** 0.06
2231 C 52.53542943713266 32.15890214675733 54.898592201961904 C 0.0 **** -0.24
2232 H 51.76776768429638 31.42768649721461 55.153177848225965 H 0.0 **** 0.06
2233 H 53.3852689151951 32.0415058536197 55.571041965184534 H 0.0 **** 0.06
2234 H 52.127063710107876 33.16431570300057 55.0005074402346 H 0.0 **** 0.06
2235 H 52.86007014224232 32.00105953859486 53.87087543884853 H 0.0 **** 0.06
2236 C 120.2062081300846 3.1136853143307945 51.22610892839259 C 0.0 **** -0.24
2237 H 120.16664022654435 2.1332957483803483 51.70082082616426 H 0.0 **** 0.06
2238 H 121.06661438857398 3.1596855036183342 50.5584415224547 H 0.0 **** 0.06
2239 H 120.29878814324195 3.8841238618670673 51.99195429327028 H 0.0 **** 0.06
2240 H 119.29230079461824 3.277249478492152 50.65448852367825 H 0.0 **** 0.06
2241 C 8.152595997699226 92.66804633564959 58.67217511725278 C 0.0 **** -0.24
2242 H 7.078113316816623 92.83040904775334 58.753168879120935 H 0.0 **** 0.06
2243 H 8.341062458303544 91.76925466763626 58.08530237146695 H 0.0 **** 0.06
2244 H 8.577456822348903 92.54699549795214 59.66954254098373 H 0.0 **** 0.06
2245 H 8.614646820413093 93.52524768383881 58.182949640148976 H 0.0 **** 0.06
2246 C 54.966035401982765 36.832247832940766 42.526371443937805 C 0.0 **** -0.24
2247 H 54.753525263444516 37.22557321859898 41.53204437844438 H 0.0 **** 0.06
2248 H 55.15002127755659 37.66028426034376 43.21186225258393 H 0.0 **** 0.06
2249 H 55.84648099401066 36.19247412371607 42.4839713202943 H 0.0 **** 0.06
2250 H 54.11155582536344 36.25215503407219 42.87713887335512 H 0.0 **** 0.06
2251 C 57.95053355073523 55.40474108285213 4.243869801068527 C 0.0 **** -0.24
2252 H 57.60586177861035 54.41955044486099 4.556104357689975 H 0.0 **** 0.06
2253 H 59.0384796512391 55.44382632249773 4.302173812110738 H 0.0 **** 0.06
2254 H 57.523266005747644 56.16383688674131 4.898393034705606 H 0.0 **** 0.06
2255 H 57.63562063063827 55.59072646044541 3.216870278256806 H 0.0 **** 0.06
2256 C 113.0887489684692 111.12493114602793 26.335527682857247 C 0.0 **** -0.24
2257 H 112.08101690400251 110.71928305347996 26.23757104772156 H 0.0 **** 0.06
2258 H 113.57370642027864 110.68433060963106 27.206431309754834 H 0.0 **** 0.06
2259 H 113.03431799937377 112.20645222254517 26.457388691599903 H 0.0 **** 0.06
2260 H 113.6633054746868 110.88829229727199 25.44037934541805 H 0.0 **** 0.06
2261 C 15.943991252286736 47.974436435248066 30.919324033064 C 0.0 **** -0.24
2262 H 15.979051243082864 46.8856119916434 30.945107733467196 H 0.0 **** 0.06
2263 H 16.72684536435804 48.37851051100097 31.560955759875476 H 0.0 **** 0.06
2264 H 14.971104937241847 48.31483166438653 31.274153601452944 H 0.0 **** 0.06
2265 H 16.09806691510508 48.31871746067077 29.89664227655298 H 0.0 **** 0.06
2266 C 53.32180490824571 73.79246241466876 85.19228942232976 C 0.0 **** -0.24
2267 H 53.9647823218762 73.58028225785924 84.33849477704211 H 0.0 **** 0.06
2268 H 53.7346703485764 74.62693644024311 85.75894268939021 H 0.0 **** 0.06
2269 H 53.26552220907516 72.91155179548556 85.83151272324812 H 0.0 **** 0.06
2270 H 52.32261307601513 74.05055681897382 84.84097662034048 H 0.0 **** 0.06
2271 C 78.28674780165576 7.530525624531492 50.548468741172826 C 0.0 **** -0.24
2272 H 78.07063142801289 6.658859885707642 49.93042482653401 H 0.0 **** 0.06
2273 H 78.63603516463036 8.346489567593721 49.91403749455333 H 0.0 **** 0.06
2274 H 79.05900169421952 7.27837682135538 51.27472942191762 H 0.0 **** 0.06
2275 H 77.3816689220618 7.838252723411841 51.071705720593854 H 0.0 **** 0.06
2276 C 97.64549083878964 110.88526483897203 16.22802034573732 C 0.0 **** -0.24
2277 H 97.7726399683264 111.9618971935451 16.341943954684155 H 0.0 **** 0.06
2278 H 97.98412062347208 110.38149437321516 17.133854183369863 H 0.0 **** 0.06
2279 H 98.2327836981994 110.53823994708858 15.377408465709891 H 0.0 **** 0.06
2280 H 96.59305331537828 110.6594449473514 16.05810180590447 H 0.0 **** 0.06
2281 C 64.89360369416679 26.010204150019348 18.54006945044994 C 0.0 **** -0.24
2282 H 64.02741282513512 26.374490275363655 19.09148004849276 H 0.0 **** 0.06
2283 H 64.56267553386667 25.346841653237533 17.741271958660118 H 0.0 **** 0.06
2284 H 65.55141028478656 25.463796757809007 19.21641565689518 H 0.0 **** 0.06
2285 H 65.43367251409941 26.85431347834293 18.111844287504248 H 0.0 **** 0.06
2286 C 34.08986519529985 22.10776584004565 9.610054063463238 C 0.0 **** -0.24
2287 H 34.5485813073431 23.08017431786189 9.788729686602561 H 0.0 **** 0.06
2288 H 34.66430030447642 21.335848276451124 10.123942557741803 H 0.0 **** 0.06
2289 H 34.080200232580594 21.901550123223345 8.54007119424962 H 0.0 **** 0.06
2290 H 33.06817606722823 22.113165659568033 9.989105307207602 H 0.0 **** 0.06
2291 C 12.10835946531347 29.586558724269253 77.63960853844867 C 0.0 **** -0.24
2292 H 12.714964930380802 30.34679344026837 77.14601987226109 H 0.0 **** 0.06
2293 H 12.76217314228711 28.860032049377665 78.12352221640629 H 0.0 **** 0.06
2294 H 11.488178247860333 29.0812260622818 76.89959648546005 H 0.0 **** 0.06
2295 H 11.471222613824523 30.058464742014337 78.38722075143974 H 0.0 **** 0.06
2296 C 42.40134394684898 98.79582316078286 51.38939685119897 C 0.0 **** -0.24
2297 H 42.898937143888 99.08455202891474 50.46306515626304 H 0.0 **** 0.06
2298 H 42.925378836154536 97.95129296836164 51.835644356281705 H 0.0 **** 0.06
2299 H 41.37103781836009 98.51147928673774 51.173752254921055 H 0.0 **** 0.06
2300 H 42.409330391194004 99.63686220407494 52.08295237816037 H 0.0 **** 0.06
2301 C 13.857772731009327 35.455866465217866 79.8940781164344 C 0.0 **** -0.24
2302 H 13.789236663132709 35.537066445760615 78.8090531846093 H 0.0 **** 0.06
2303 H 14.320488898156565 34.50408044247723 80.1577102423908 H 0.0 **** 0.06
2304 H 12.858422752681765 35.507250924062646 80.32664716787986 H 0.0 **** 0.06
2305 H 14.464946905365377 36.27448226379158 80.28210191794312 H 0.0 **** 0.06
2306 C 84.55564319028724 118.19924535538335 44.58854327912883 C 0.0 **** -0.24
2307 H 84.23025359821821 118.50929763301558 43.59578052900923 H 0.0 **** 0.06
2308 H 83.82943326773233 117.5043249785711 45.00908159384315 H 0.0 **** 0.06
2309 H 84.63770017756718 119.07448715544331 45.23247193437143 H 0.0 **** 0.06
2310 H 85.52771100642309 117.70998727501392 44.51500088159216 H 0.0 **** 0.06
2311 C 45.68973380517547 36.60771453214903 58.81849552161319 C 0.0 **** -0.24
2312 H 46.56036625869698 35.96017662824431 58.92524538382585 H 0.0 **** 0.06
2313 H 45.29239641109392 36.51804720385098 57.807015160351995 H 0.0 **** 0.06
2314 H 45.98065382978164 37.640944616100626 59.005615248673905 H 0.0 **** 0.06
2315 H 44.92557989393925 36.30875932516233 59.5367464175591 H 0.0 **** 0.06
2316 C 90.9962180628948 120.60808992429318 23.053393591824587 C 0.0 **** -0.24
2317 H 90.55787226336082 121.59104532482067 22.884454897069105 H 0.0 **** 0.06
2318 H 90.40725147164989 119.85355613429664 22.532211467413177 H 0.0 **** 0.06
2319 H 91.00213618871908 120.39098902400067 24.121672065439014 H 0.0 **** 0.06
2320 H 92.01855635784875 120.5969132464725 22.67419278385563 H 0.0 **** 0.06
2321 C 105.98855116875274 108.16348834277336 74.51711215359273 C 0.0 **** -0.24
2322 H 106.21365340488398 107.80697776076553 75.52147753056101 H 0.0 **** 0.06
2323 H 106.28892836491025 107.40988798764063 73.78807934659261 H 0.0 **** 0.06
2324 H 106.53392477564577 109.0886430915112 74.32936217835504 H 0.0 **** 0.06
2325 H 104.9178074879083 108.3487421215828 74.4285811210269 H 0.0 **** 0.06
2326 C 2.812598566425251 113.40710282829109 117.11440882531177 C 0.0 **** -0.24
2327 H 1.9263415576940588 113.6832870262171 116.54301358841188 H 0.0 **** 0.06
2328 H 2.7745801553851237 112.34454327322662 117.3531125430363 H 0.0 **** 0.06
2329 H 2.84423261707407 113.98667619571643 118.03722068389163 H 0.0 **** 0.06
2330 H 3.705074972375172 113.61611862771385 116.52401996805048 H 0.0 **** 0.06
2331 C 68.43383803950462 108.12916079007965 27.91737169710283 C 0.0 **** -0.24
2332 H 68.39431902600114 108.86609127008614 27.115140790411402 H 0.0 **** 0.06
2333 H 69.45700131824967 108.04834744843453 28.285404108104004 H 0.0 **** 0.06
2334 H 68.1056162421641 107.16128392625558 27.539589367237177 H 0.0 **** 0.06
2335 H 67.77869978465188 108.44302287927098 28.730059316698835 H 0.0 **** 0.06
2336 C 50.29004048913825 77.26468053615474 99.53413455634862 C 0.0 **** -0.24
2337 H 50.60839801286991 78.0091250837427 100.26378138918447 H 0.0 **** 0.06
2338 H 49.2886223106719 77.50818474599059 99.18028996088256 H 0.0 **** 0.06
2339 H 50.28120890970865 76.27886777752839 100.00106497207553 H 0.0 **** 0.06
2340 H 50.98256151619745 77.26110386837216 98.69263855472501 H 0.0 **** 0.06
2341 C 32.81653814992569 86.0643680843907 106.07166245227776 C 0.0 **** -0.24
2342 H 32.67736097598694 86.86550862194606 105.345048168515 H 0.0 **** 0.06
2343 H 31.854811907312467 85.80888355723913 106.51831005667529 H 0.0 **** 0.06
2344 H 33.50311214370407 86.39597490534541 106.85070916648404 H 0.0 **** 0.06
2345 H 33.22940301013986 85.1883126770089 105.57140027870966 H 0.0 **** 0.06
2346 C 105.93089758268735 17.28034092637077 107.23088166606783 C 0.0 **** -0.24
2347 H 105.60517624916903 18.103521872311518 107.86712177226416 H 0.0 **** 0.06
2348 H 106.04987581462254 16.380147278409424 107.83449936305398 H 0.0 **** 0.06
2349 H 106.8822847987798 17.53606833970329 106.7654189787905 H 0.0 **** 0.06
2350 H 105.18344415624446 17.102953667022717 106.45707491567947 H 0.0 **** 0.06
2351 C 13.231477840722576 103.02522562049944 23.56289270214174 C 0.0 **** -0.24
2352 H 13.893500852077153 103.41436747382275 22.78896577544893 H 0.0 **** 0.06
2353 H 12.79662907176386 102.08340866679809 23.2268969739579 H 0.0 **** 0.06
2354 H 12.436754296590465 103.74463457820825 23.756363280346072 H 0.0 **** 0.06
2355 H 13.801609610016598 102.85753274739086 24.476812605679598 H 0.0 **** 0.06
2356 C 12.432466979003948 4.14393402948437 119.19405683465993 C 0.0 **** -0.24
2357 H 12.011534259004122 4.0489561109754675 118.19269796223301 H 0.0 **** 0.06
2358 H 11.631435660619132 4.3467989545447665 119.90548385185036 H 0.0 **** 0.06
2359 H 13.149600318056912 4.9643216661578435 119.21044521210717 H 0.0 **** 0.06
2360 H 12.934963375991089 3.2157910425999034 119.46600841792952 H 0.0 **** 0.06
2361 C 39.642530558975096 0.0450401282673738 24.78975323769089 C 0.0 **** -0.24
2362 H 38.70010863277389 0.5279648898461033 24.530681209645905 H 0.0 **** 0.06
2363 H 40.3037782317724 0.7704023721062896 25.264286548580827 H 0.0 **** 0.06
2364 H 40.11395190956878 -0.34009871786768997 23.885527219808893 H 0.0 **** 0.06
2365 H 39.45124033074188 -0.7785691285783969 25.477681686944464 H 0.0 **** 0.06
2366 C 22.270470833415743 82.90893438413825 68.62302777664368 C 0.0 **** -0.24
2367 H 22.05369584741328 81.84658505283673 68.51364687920548 H 0.0 **** 0.06
2368 H 23.28797033674627 83.03512442958373 68.99601659782381 H 0.0 **** 0.06
2369 H 21.56839572896729 83.35294273990849 69.32771760657054 H 0.0 **** 0.06
2370 H 22.174789783146224 83.40067130629464 67.65459621915713 H 0.0 **** 0.06
2371 C 121.21627899085617 121.96510935594827 52.13103333939594 C 0.0 **** -0.24
2372 H 122.13235893454149 122.13226370991933 52.698859672417285 H 0.0 **** 0.06
2373 H 120.59911220771383 122.86355723420068 52.164935265553 H 0.0 **** 0.06
2374 H 120.66741982039642 121.13017786288644 52.565595960500474 H 0.0 **** 0.06
2375 H 121.46822162396343 121.73525825136721 51.09532723523074 H 0.0 **** 0.06
2376 C 55.15136422392152 27.818469272850564 101.82783910723604 C 0.0 **** -0.24
2377 H 55.72489758462427 28.610586757268322 101.34599566083342 H 0.0 **** 0.06
2378 H 55.01449922344659 26.993162435494582 101.12840980092683 H 0.0 **** 0.06
2379 H 54.17815997620772 28.20705174291112 102.12735346205298 H 0.0 **** 0.06
2380 H 55.68857560623883 27.46508015456766 102.707469553534 H 0.0 **** 0.06
2381 C 104.06422736457392 67.03035843294086 70.72204064091287 C 0.0 **** -0.24
2382 H 103.7005065984024 66.1129339922144 71.18341276660132 H 0.0 **** 0.06
2383 H 103.72179701579843 67.0783756348953 69.68865761591707 H 0.0 **** 0.06
2384 H 105.15480721826374 67.04070171251702 70.74379851646007 H 0.0 **** 0.06
2385 H 103.68220668714561 67.88987027693793 71.27226265414158 H 0.0 **** 0.06
2386 C 56.60451478735027 46.83746102502343 8.409507332974197 C 0.0 **** -0.24
2387 H 56.73383558631137 47.63525715890477 9.140961482940355 H 0.0 **** 0.06
2388 H 56.057633131866936 47.21958207899553 7.547281327228472 H 0.0 **** 0.06
2389 H 56.045857045237724 46.0178978392305 8.861458011123183 H 0.0 **** 0.06
2390 H 57.5817861652865 46.47728737438381 8.089255460632888 H 0.0 **** 0.06
2391 C 100.22624637293305 74.85885574471445 109.16399171131707 C 0.0 **** -0.24
2392 H 100.3081335771794 73.7718672721457 109.20092860870213 H 0.0 **** 0.06
2393 H 101.18881333539306 75.28591131988486 108.88363113279087 H 0.0 **** 0.06
2394 H 99.93353221891311 75.23419278681178 110.14524259982244 H 0.0 **** 0.06
2395 H 99.47377623063122 75.14055682606931 108.4276094207008 H 0.0 **** 0.06
2396 C 19.956866895686204 10.727480260482196 12.960303532020959 C 0.0 **** -0.24
2397 H 20.623263401450288 10.662722268170967 12.099201972260545 H 0.0 **** 0.06
2398 H 19.343180216821565 11.624570757523713 12.876458293607953 H 0.0 **** 0.06
2399 H 20.54833683032004 10.775649987076179 13.874507388637113 H 0.0 **** 0.06
2400 H 19.314366641458662 9.848179975548703 12.988870453656688 H 0.0 **** 0.06
2401 C 59.44118592711024 0.7287774508094458 64.80430389582327 C 0.0 **** -0.24
2402 H 59.21840330994449 0.9604443523332691 65.84628859303817 H 0.0 **** 0.06
2403 H 58.74353734406438 1.260836723949609 64.15728603732586 H 0.0 **** 0.06
2404 H 59.342159955039335 -0.3445615251057177 64.64195854499255 H 0.0 **** 0.06
2405 H 60.46024610937559 1.038762345642624 64.57332682460037 H 0.0 **** 0.06
2406 C 33.12494636123918 83.32568983192266 18.921464374484913 C 0.0 **** -0.24
2407 H 32.245312263739805 82.83804558894911 18.502565106936004 H 0.0 **** 0.06
2408 H 34.018927829214846 82.77034494339073 18.637158351153772 H 0.0 **** 0.06
2409 H 33.04263009954448 83.34997978620257 20.008612386552983 H 0.0 **** 0.06
2410 H 33.19176003755834 84.3441172918867 18.539664541536794 H 0.0 **** 0.06
2411 C 1.8045008025753617 17.084346190881718 108.99068649714849 C 0.0 **** -0.24
2412 H 1.2662627927950894 18.02210430242536 109.12835011932748 H 0.0 **** 0.06
2413 H 1.5030206429642163 16.375996487413516 109.76286857514586 H 0.0 **** 0.06
2414 H 2.876653391028597 17.267801770096924 109.06272536324904 H 0.0 **** 0.06
2415 H 1.571086486591355 16.672385273483656 108.00832824950363 H 0.0 **** 0.06
2416 C 52.449016089522274 112.21359546657789 20.36992032522999 C 0.0 **** -0.24
2417 H 52.69459621027994 113.00819440471028 19.665053910936162 H 0.0 **** 0.06
2418 H 53.21630169422923 112.16401697086002 21.143077182825266 H 0.0 **** 0.06
2419 H 52.40268860392945 111.26095470012274 19.841879547990253 H 0.0 **** 0.06
2420 H 51.48285780759795 112.4218594848816 20.829006322448464 H 0.0 **** 0.06
2421 C 84.04548590531252 18.382081408802776 94.19573746878137 C 0.0 **** -0.24
2422 H 84.18168005179542 18.286871905692465 95.27345870609827 H 0.0 **** 0.06
2423 H 83.64861890244244 19.370951960901436 93.9655476908315 H 0.0 **** 0.06
2424 H 83.34589823865534 17.620680406162307 93.85001164111662 H 0.0 **** 0.06
2425 H 85.00440704242449 18.24853654809405 93.69517906019502 H 0.0 **** 0.06
2426 C 99.45613364450331 34.460600498511184 98.85273836110777 C 0.0 **** -0.24
2427 H 100.19215996994556 34.638544645980204 99.63615254525115 H 0.0 **** 0.06
2428 H 99.18871158637276 33.40326245014947 98.83991323061312 H 0.0 **** 0.06
2429 H 99.87774713703315 34.73955353759224 97.88719553025928 H 0.0 **** 0.06
2430 H 98.56583117129915 35.05807043117619 99.04728362115499 H 0.0 **** 0.06
2431 C 51.886142888537506 53.188360850974775 56.342684185132995 C 0.0 **** -0.24
2432 H 52.451947386512416 52.75024041649128 57.16400408881131 H 0.0 **** 0.06
2433 H 51.24771285625667 52.42787200463599 55.893674735690794 H 0.0 **** 0.06
2434 H 52.57682980193971 53.57346750249516 55.59089080071551 H 0.0 **** 0.06
2435 H 51.27055921235683 54.004405148502826 56.72098319740236 H 0.0 **** 0.06
2436 C 8.376614023818789 84.90789755951153 9.342010827167599 C 0.0 **** -0.24
2437 H 8.94160468692472 85.46658948903315 10.087158802279589 H 0.0 **** 0.06
2438 H 8.744374737552107 85.15569635308123 8.34611899509531 H 0.0 **** 0.06
2439 H 7.320254667156476 85.16948682652374 9.414631431844839 H 0.0 **** 0.06
2440 H 8.499196941899413 83.83900378730297 9.51959824892026 H 0.0 **** 0.06
2441 C 60.45686254948407 77.31388120852095 86.00720565333114 C 0.0 **** -0.24
2442 H 61.23519806112404 76.55500759221239 86.0868760346118 H 0.0 **** 0.06
2443 H 60.22565273644824 77.7016474271044 87.00019919974392 H 0.0 **** 0.06
2444 H 59.56116769271722 76.87108861307111 85.57276913016261 H 0.0 **** 0.06
2445 H 60.80558184727502 78.12751882235825 85.37179055109527 H 0.0 **** 0.06
2446 C 29.387229289426827 21.282676769249974 79.99699499316165 C 0.0 **** -0.24
2447 H 28.74173631088061 20.82629304588346 80.74760969664894 H 0.0 **** 0.06
2448 H 30.27060262456476 20.66051871031175 79.85154523072586 H 0.0 **** 0.06
2449 H 29.691841169634614 22.274011642306732 80.33390377796394 H 0.0 **** 0.06
2450 H 28.844238012069937 21.369684237450997 79.05622942977436 H 0.0 **** 0.06
2451 C 89.94978438793518 118.12668583525428 26.488691498095307 C 0.0 **** -0.24
2452 H 88.92562035619855 118.49794372755036 26.449751428028662 H 0.0 **** 0.06
2453 H 90.60076367350632 118.79613672068618 25.925431125168217 H 0.0 **** 0.06
2454 H 89.99101736279783 117.12769841198872 26.05325178889271 H 0.0 **** 0.06
2455 H 90.28144065010005 118.08419259340943 27.525768695726327 H 0.0 **** 0.06
2456 C 108.17457265781303 66.58863556234189 71.38200343744045 C 0.0 **** -0.24
2457 H 108.8070609293211 65.74380588987135 71.11119896006964 H 0.0 **** 0.06
2458 H 107.14069469797778 66.25514622207407 71.46813647916609 H 0.0 **** 0.06
2459 H 108.24622934018188 67.35697536378896 70.61221906921246 H 0.0 **** 0.06
2460 H 108.50652343488952 66.99840874397299 72.33665751175087 H 0.0 **** 0.06
2461 C 57.39636970673783 97.16599298995298 117.41600474388038 C 0.0 **** -0.24
2462 H 56.84657681214841 96.65259856164836 116.6266260721721 H 0.0 **** 0.06
2463 H 57.08227514639202 98.20961971262467 117.4574855183225 H 0.0 **** 0.06
2464 H 58.465304497954435 97.11598990336785 117.20445828206704 H 0.0 **** 0.06
2465 H 57.19239136130588 96.68564487583828 118.37264845973725 H 0.0 **** 0.06
2466 C 53.33049347440941 18.622812727870205 82.93603342720635 C 0.0 **** -0.24
2467 H 53.47647601183375 19.46729423871393 83.61000435799086 H 0.0 **** 0.06
2468 H 52.840724054789234 17.810217204408364 83.47260321520993 H 0.0 **** 0.06
2469 H 54.29673426840135 18.283284870176338 82.56436527973315 H 0.0 **** 0.06
2470 H 52.70656920473087 18.93283666056775 82.09756614033454 H 0.0 **** 0.06
2471 C 13.718768682848747 121.92369901827561 11.403071122584407 C 0.0 **** -0.24
2472 H 13.343708359650009 122.59893390343726 12.172642659947826 H 0.0 **** 0.06
2473 H 14.360465918097532 121.17141240638196 11.862168322737915 H 0.0 **** 0.06
2474 H 14.28969312048821 122.49174173137516 10.669067422735111 H 0.0 **** 0.06
2475 H 12.879113787959682 121.43325438649629 10.910227895596023 H 0.0 **** 0.06
2476 C 75.3909377280058 16.928886490193104 112.44888636965435 C 0.0 **** -0.24
2477 H 76.33031858537622 17.04608362620187 111.90888532752393 H 0.0 **** 0.06
2478 H 75.59770408951749 16.773330321085254 113.50760996120157 H 0.0 **** 0.06
2479 H 74.84992821712851 16.069647409057808 112.05310537959558 H 0.0 **** 0.06
2480 H 74.78635094426087 17.82737297290688 112.3239680573973 H 0.0 **** 0.06
2481 C 13.214765151864288 111.56980777452806 15.941845359942931 C 0.0 **** -0.24
2482 H 13.850399407710693 112.27969418522282 15.412857583684684 H 0.0 **** 0.06
2483 H 13.083450663016972 111.89852766504329 16.973634845014487 H 0.0 **** 0.06
2484 H 13.681434615306767 110.58476496172625 15.930937491110797 H 0.0 **** 0.06
2485 H 12.243371793813974 111.51708123886034 15.450320633236174 H 0.0 **** 0.06
2486 C 78.26463025802249 7.155885475867137 118.34583373831997 C 0.0 **** -0.24
2487 H 77.96929196748928 8.196127237855393 118.48674908830424 H 0.0 **** 0.06
2488 H 79.04168345412229 7.099974787149961 117.58273735245578 H 0.0 **** 0.06
2489 H 77.39976688490022 6.572467211771055 118.0293780481275 H 0.0 **** 0.06
2490 H 78.64773629265727 6.757284161290897 119.28528010252754 H 0.0 **** 0.06
2491 C 4.38348566809367 117.46993877071246 61.277670754454604 C 0.0 **** -0.24
2492 H 4.630166675543649 118.18890995757172 60.49596322633205 H 0.0 **** 0.06
2493 H 3.3322981039515867 117.1927255210827 61.196262855680345 H 0.0 **** 0.06
2494 H 4.566672809478916 117.9185213455626 62.25442092239349 H 0.0 **** 0.06
2495 H 5.004305807475248 116.58161102604221 61.16273224477921 H 0.0 **** 0.06
2496 C 36.099214282638286 65.25505248243095 13.701856680049957 C 0.0 **** -0.24
2497 H 35.6537794876009 65.90479414276919 12.949117497814086 H 0.0 **** 0.06
2498 H 35.89039950191102 65.65343398796117 14.69530790299089 H 0.0 **** 0.06
2499 H 37.17706071947177 65.20637466691792 13.54761587554782 H 0.0 **** 0.06
2500 H 35.673838375508055 64.25470854979599 13.615218832040767 H 0.0 **** 0.06
2501 C 107.73369025932234 0.5572930284428992 71.16922560768346 C 0.0 **** -0.24
2502 H 108.47383739461151 0.7332571241687447 71.95021958717484 H 0.0 **** 0.06
2503 H 108.17983648908329 0.7589926798310955 70.19499794466863 H 0.0 **** 0.06
2504 H 106.88038956053238 1.2180244444423636 71.32191029901315 H 0.0 **** 0.06
2505 H 107.40202272418612 -0.47932800096452866 71.20946356094507 H 0.0 **** 0.06
2506 C 119.42216226347155 59.34192079098989 85.75668975235281 C 0.0 **** -0.24
2507 H 120.49375926619155 59.40122369295352 85.94857452602665 H 0.0 **** 0.06
2508 H 119.1606856515232 58.32305702399168 85.47046549145142 H 0.0 **** 0.06
2509 H 119.15984046318295 60.025843651258185 84.94913447011405 H 0.0 **** 0.06
2510 H 118.87728404362093 59.618189329981135 86.65885718383372 H 0.0 **** 0.06
2511 C 42.780321657237835 112.11708052984969 83.72598265090559 C 0.0 **** -0.24
2512 H 43.804725442633355 112.34534993065066 84.02015720675536 H 0.0 **** 0.06
2513 H 42.09345386811634 112.76608689621224 84.26936565790388 H 0.0 **** 0.06
2514 H 42.559249272417276 111.07611350059243 83.96010934469108 H 0.0 **** 0.06
2515 H 42.66517416050226 112.28121871156027 82.65455956883524 H 0.0 **** 0.06
2516 C 33.905241419520905 111.43334137763657 29.132295007201506 C 0.0 **** -0.24
2517 H 33.36127713248894 111.8648460967517 29.972278468622754 H 0.0 **** 0.06
2518 H 34.5510719946287 110.63141566906512 29.490678546227898 H 0.0 **** 0.06
2519 H 34.51195341233253 112.2043991011829 28.657043207852197 H 0.0 **** 0.06
2520 H 33.1955469347096 111.03133008640825 28.40781417453018 H 0.0 **** 0.06
2521 C 102.81022857479661 83.05662693464492 68.26623055365378 C 0.0 **** -0.24
2522 H 103.81072395587904 82.91399570112605 67.85806021924712 H 0.0 **** 0.06
2523 H 102.798382500363 82.75231114722024 69.31321065027483 H 0.0 **** 0.06
2524 H 102.09867147056843 82.45188790512637 67.70353975962041 H 0.0 **** 0.06
2525 H 102.53393865066437 84.1082145426191 68.18952276270817 H 0.0 **** 0.06
2526 C 76.90183484900984 55.4990771282186 0.6476232230517933 C 0.0 **** -0.24
2527 H 77.84425385529099 55.90138744484479 1.0179048454544954 H 0.0 **** 0.06
2528 H 76.1102581569883 55.70711333158445 1.3679738474098837 H 0.0 **** 0.06
2529 H 76.9951292511597 54.4219193759601 0.5108679108855814 H 0.0 **** 0.06
2530 H 76.65809444845158 55.96680328024571 -0.30617684021270186 H 0.0 **** 0.06
2531 C 35.08424099419085 99.03476464259347 105.69504724701217 C 0.0 **** -0.24
2532 H 36.10431190444149 99.36860989494244 105.50912976519894 H 0.0 **** 0.06
2533 H 34.7218987552761 99.47390678477166 106.62491660614222 H 0.0 **** 0.06
2534 H 35.066871445620436 97.94756714314008 105.77545022297438 H 0.0 **** 0.06
2535 H 34.44388187142542 99.34897474751966 104.87069239373314 H 0.0 **** 0.06
2536 C 66.99224290288898 82.5092050929189 82.54444856210196 C 0.0 **** -0.24
2537 H 67.30961075071103 83.55053583583643 82.59736952998199 H 0.0 **** 0.06
2538 H 67.6381094169501 81.90087863790477 83.17889648306578 H 0.0 **** 0.06
2539 H 67.0612398649547 82.16061058259857 81.51407339470819 H 0.0 **** 0.06
2540 H 65.96127068209279 82.42608850593581 82.88877491089329 H 0.0 **** 0.06
2541 C 119.94098856377377 27.463548901083982 62.890202002834954 C 0.0 **** -0.24
2542 H 120.55918871087252 27.646740572458725 63.769826451136296 H 0.0 **** 0.06
2543 H 120.57499389260497 27.4078607293427 62.00586002985297 H 0.0 **** 0.06
2544 H 119.22463325388853 28.277469324779815 62.77492249540117 H 0.0 **** 0.06
2545 H 119.40475318467159 26.52194110671718 63.01363683160187 H 0.0 **** 0.06
2546 C 92.8578935023312 7.317278581245237 106.72131407677352 C 0.0 **** -0.24
2547 H 92.78079723968722 6.271703967255473 107.01957503867297 H 0.0 **** 0.06
2548 H 93.80537739812459 7.725822815194505 107.07384014165171 H 0.0 **** 0.06
2549 H 92.03397588445426 7.881387807524668 107.15855228878488 H 0.0 **** 0.06
2550 H 92.81237686322328 7.389546837108902 105.6349213246522 H 0.0 **** 0.06
2551 C 37.531449718825655 81.47769251021606 105.35377464664808 C 0.0 **** -0.24
2552 H 37.79147387401761 82.41932914455003 105.83805724310628 H 0.0 **** 0.06
2553 H 38.41816858206934 80.84576379064714 105.28908656086918 H 0.0 **** 0.06
2554 H 37.15399065626687 81.678336868526 104.35070373859385 H 0.0 **** 0.06
2555 H 36.76378850850196 80.96897467367273 105.93641699616077 H 0.0 **** 0.06
2556 C 28.501503758500327 15.282225644228646 70.00722243955373 C 0.0 **** -0.24
2557 H 29.130405039184694 14.416911956243041 69.79700320239218 H 0.0 **** 0.06
2558 H 28.14921424588686 15.232343446324592 71.03832508335374 H 0.0 **** 0.06
2559 H 27.64734608866646 15.283432072656012 69.33115894497305 H 0.0 **** 0.06
2560 H 29.079685325372964 16.19452352983194 69.86457852002933 H 0.0 **** 0.06
2561 C 2.496053379787938 49.679836055660104 82.0947487454315 C 0.0 **** -0.24
2562 H 1.8595862344861587 49.20545373532871 81.34746117085137 H 0.0 **** 0.06
2563 H 1.919481920208483 50.42867539947329 82.63909585126515 H 0.0 **** 0.06
2564 H 3.340462006834514 50.15845940071585 81.60119900908217 H 0.0 **** 0.06
2565 H 2.862046354755023 48.925344106757684 82.7914716291964 H 0.0 **** 0.06
2566 C 43.227971482005614 50.457343430194555 116.43439723288793 C 0.0 **** -0.24
2567 H 42.67584105581949 51.30280995368349 116.84491527356715 H 0.0 **** 0.06
2568 H 44.17904158570428 50.80576892335381 116.03043300762846 H 0.0 **** 0.06
2569 H 42.64275238360739 49.99315782110051 115.63991306648086 H 0.0 **** 0.06
2570 H 43.4131495832018 49.72682037538448 117.22267441156674 H 0.0 **** 0.06
2571 C 112.3419104469542 75.2977398924757 3.1601889627263713 C 0.0 **** -0.24
2572 H 112.31616050672491 76.15458152593493 3.8330009954704316 H 0.0 **** 0.06
2573 H 113.17795018366296 75.40368429329766 2.468737547374003 H 0.0 **** 0.06
2574 H 111.40930039182811 75.24841843580816 2.598264966063299 H 0.0 **** 0.06
2575 H 112.46478793193779 74.38390801754872 3.7414970869991215 H 0.0 **** 0.06
2576 C 118.4744094522189 37.914057052244125 37.19234825559181 C 0.0 **** -0.24
2577 H 117.96778414026306 37.526868568672 38.07644416910671 H 0.0 **** 0.06
2578 H 119.25469320129616 38.611941028151335 37.49672459678203 H 0.0 **** 0.06
2579 H 117.7528993214259 38.42880713208248 36.5577868326788 H 0.0 **** 0.06
2580 H 118.92000349749712 37.08767525555138 36.638601219782856 H 0.0 **** 0.06
2581 C 91.28753325930057 76.94488030406666 114.55635683278314 C 0.0 **** -0.24
2582 H 91.5707745698158 77.83712387250168 113.99798824347795 H 0.0 **** 0.06
2583 H 92.0353240194002 76.1655644715905 114.39924004166782 H 0.0 **** 0.06
2584 H 90.31607356517856 76.59224180239337 114.2103816314053 H 0.0 **** 0.06
2585 H 91.23017644101213 77.18439529030113 115.6180481533012 H 0.0 **** 0.06
2586 C 117.93521368569111 36.46227835720117 51.342786534239025 C 0.0 **** -0.24
2587 H 117.97114308866614 37.53738944455023 51.51055060855988 H 0.0 **** 0.06
2588 H 118.70639102956281 36.1796958512021 50.62480433115536 H 0.0 **** 0.06
2589 H 116.95578550953232 36.1884274507637 50.94984905004088 H 0.0 **** 0.06
2590 H 118.10735892850579 35.941001735140446 52.28445388826657 H 0.0 **** 0.06
2591 C 119.29054966137693 4.970920464214885 90.20504912836915 C 0.0 **** -0.24
2592 H 120.36767222185794 5.103273500575256 90.3093726486243 H 0.0 **** 0.06
2593 H 119.03280912957145 3.928534080656391 90.39312668469961 H 0.0 **** 0.06
2594 H 118.98768921632593 5.244563588983453 89.19408932341403 H 0.0 **** 0.06
2595 H 118.77462228240972 5.608114916475984 90.92359411532325 H 0.0 **** 0.06
2596 C 89.76830124888193 44.438512226476746 57.68815687182055 C 0.0 **** -0.24
2597 H 89.92127362778027 45.282767454803775 57.015349836203086 H 0.0 **** 0.06
2598 H 89.1608748081207 43.68323723826251 57.18905513855684 H 0.0 **** 0.06
2599 H 89.2570273475683 44.7800267394195 58.58824828243347 H 0.0 **** 0.06
2600 H 90.73271244397705 44.00956244131601 57.958004553715924 H 0.0 **** 0.06
2601 C 3.5652092375647726 75.65545697481832 99.18764438241458 C 0.0 **** -0.24
2602 H 4.096018101900597 74.9822677226635 98.51443572974215 H 0.0 **** 0.06
2603 H 3.8607431478692433 76.68466781340123 98.97940518033742 H 0.0 **** 0.06
2604 H 3.8139167678936587 75.40816423495096 100.21930107459814 H 0.0 **** 0.06
2605 H 2.491295875396702 75.54908196583256 99.03596337231629 H 0.0 **** 0.06
2606 C 57.47245706848224 66.47219579804158 0.06426092226251967 C 0.0 **** -0.24
2607 H 58.201290478433975 66.17390488519652 0.8184506502837792 H 0.0 **** 0.06
2608 H 57.527635560343356 65.78846558541483 -0.7838169790770735 H 0.0 **** 0.06
2609 H 57.69098539469451 67.48532330878794 -0.27148252220644054 H 0.0 **** 0.06
2610 H 56.47144053282699 66.43905592045354 0.4926500829828484 H 0.0 **** 0.06
2611 C 35.06898918851567 57.90969264647386 20.256030617742397 C 0.0 **** -0.24
2612 H 34.52890961884472 58.6097533989993 20.893132403220534 H 0.0 **** 0.06
2613 H 34.37670264572475 57.458317911186356 19.544148613609764 H 0.0 **** 0.06
2614 H 35.51727435859962 57.130040889921716 20.87164188737529 H 0.0 **** 0.06
2615 H 35.85227826317171 58.441087363455864 19.71476485157541 H 0.0 **** 0.06
2616 C 85.1838188602403 61.01885658220175 90.58697431647424 C 0.0 **** -0.24
2617 H 85.23767041393576 60.86802394885727 91.66498508426038 H 0.0 **** 0.06
2618 H 86.04259801683556 60.5446735182975 90.11106620695664 H 0.0 **** 0.06
2619 H 85.19074845803534 62.086454190593216 90.36933474099085 H 0.0 **** 0.06
2620 H 84.26526277429045 60.5755559575811 90.20437543779737 H 0.0 **** 0.06
2621 C 90.79792642135538 62.975900909392806 121.98892267339454 C 0.0 **** -0.24
2622 H 91.54127802519338 62.987821992626834 122.78660997870048 H 0.0 **** 0.06
2623 H 89.92836482511382 63.55651735943684 122.2948586277551 H 0.0 **** 0.06
2624 H 90.49625431390206 61.94737364432035 121.78918197276312 H 0.0 **** 0.06
2625 H 91.2269924380177 63.41039891392376 121.0862120183179 H 0.0 **** 0.06
2626 C 73.98606779009604 91.52444074740615 101.17195121934594 C 0.0 **** -0.24
2627 H 74.51717858358741 90.61220047166029 101.44248527710431 H 0.0 **** 0.06
2628 H 72.97826211219459 91.27415904645376 100.84024124690882 H 0.0 **** 0.06
2629 H 74.51919271894604 92.02963805211436 100.36605529295332 H 0.0 **** 0.06
2630 H 73.92991433237879 92.18271836619863 102.03889877928412 H 0.0 **** 0.06
2631 C 95.83525819224022 67.09161497848706 87.4236067935536 C 0.0 **** -0.24
2632 H 94.90940783691599 66.53690254802827 87.27018917950826 H 0.0 **** 0.06
2633 H 95.60366332432557 68.08866730990039 87.79811469394795 H 0.0 **** 0.06
2634 H 96.3699970047979 67.17341525927031 86.47649544486231 H 0.0 **** 0.06
2635 H 96.45759337295819 66.56604912753635 88.14827512898154 H 0.0 **** 0.06
2636 C 52.70909242898483 37.709255672261165 46.08192023431056 C 0.0 **** -0.24
2637 H 52.828646520511825 38.30572181947724 46.98657303000326 H 0.0 **** 0.06
2638 H 52.35487077169989 38.346108835160464 45.27122807151056 H 0.0 **** 0.06
2639 H 51.984970544151906 36.91484072774105 46.26409083397664 H 0.0 **** 0.06
2640 H 53.668633441840484 37.27000776999253 45.80731126900389 H 0.0 **** 0.06
2641 C 90.57917855541228 93.13663141398881 24.31897331299629 C 0.0 **** -0.24
2642 H 91.55715252312469 93.1901217898404 23.84244911390681 H 0.0 **** 0.06
2643 H 90.4209198752208 92.13234271985236 24.712658649671567 H 0.0 **** 0.06
2644 H 89.80554318165346 93.36607658529067 23.585279233766386 H 0.0 **** 0.06
2645 H 90.53211471024775 93.85936873570753 25.13405153562448 H 0.0 **** 0.06
2646 C 26.743729913168437 3.480833816248989 47.312146500973405 C 0.0 **** -0.24
2647 H 26.23380983090469 4.087741567323334 48.06047076988854 H 0.0 **** 0.06
2648 H 27.353140585879174 2.726551439206432 47.80998325943366 H 0.0 **** 0.06
2649 H 27.381833348323283 4.11946297203292 46.70130649166361 H 0.0 **** 0.06
2650 H 26.005158751213145 2.9915774224774907 46.677055537281234 H 0.0 **** 0.06
2651 C 15.704070603952363 7.709169102584184 86.6683143997443 C 0.0 **** -0.24
2652 H 15.694400624106386 8.27075003557573 85.73487346252733 H 0.0 **** 0.06
2653 H 14.846893296370826 7.0359184924262195 86.69632196943189 H 0.0 **** 0.06
2654 H 15.649791051056756 8.400834587184534 87.50879418886223 H 0.0 **** 0.06
2655 H 16.624250484571572 7.128794677957615 86.73424778609012 H 0.0 **** 0.06
2656 C 123.31774568193941 53.50124835601211 112.71732938129395 C 0.0 **** -0.24
2657 H 123.83960597464247 53.951005791431314 113.56233164196776 H 0.0 **** 0.06
2658 H 123.87636325636993 52.632942395397976 112.36703392849576 H 0.0 **** 0.06
2659 H 123.23639934062624 54.23020212888997 111.91177751294448 H 0.0 **** 0.06
2660 H 122.32098208462787 53.19092145893369 113.03001489235734 H 0.0 **** 0.06
2661 C 72.40109770521123 1.293499778475251 114.36010491091588 C 0.0 **** -0.24
2662 H 71.56582454125696 1.9812999157609852 114.22734032790896 H 0.0 **** 0.06
2663 H 73.10553438037817 1.7124498670010695 115.07868580504419 H 0.0 **** 0.06
2664 H 72.90275089209396 1.141830983180384 113.4044358488461 H 0.0 **** 0.06
2665 H 72.02900039321297 0.33792107374571856 114.73029359881775 H 0.0 **** 0.06
2666 C 94.09442652905155 25.268146354487598 81.07052857992048 C 0.0 **** -0.24
2667 H 93.7375205228016 25.834015132334883 81.93131157191834 H 0.0 **** 0.06
2668 H 93.4002022130337 25.39633064587366 80.23894323214782 H 0.0 **** 0.06
2669 H 94.15778483384727 24.21200441833477 81.33198532066481 H 0.0 **** 0.06
2670 H 95.08055664242295 25.630704630257455 80.78016396576936 H 0.0 **** 0.06
2671 C 93.41222546208593 118.67735958993006 27.464598435832812 C 0.0 **** -0.24
2672 H 93.28699585525393 118.14452377973484 28.407708346166345 H 0.0 **** 0.06
2673 H 93.18322970437487 118.00711997737031 26.636118195628967 H 0.0 **** 0.06
2674 H 94.44162414966593 119.02416567167865 27.377854235306728 H 0.0 **** 0.06
2675 H 92.73646708366624 119.53270438973269 27.438663146190322 H 0.0 **** 0.06
2676 C 74.73664675831782 122.4651833597717 59.343234297718865 C 0.0 **** -0.24
2677 H 74.03631824398934 121.71332277272874 59.70647432171387 H 0.0 **** 0.06
2678 H 74.75211672303493 123.30959942112611 60.03321615952953 H 0.0 **** 0.06
2679 H 74.4234222388992 122.80680211811129 58.3570995771736 H 0.0 **** 0.06
2680 H 75.73519384952152 122.03116600077742 59.27747385071227 H 0.0 **** 0.06
2681 C 87.78415774518987 55.80920383411089 28.85490548454353 C 0.0 **** -0.24
2682 H 88.86572741883396 55.93056703332181 28.801965137996724 H 0.0 **** 0.06
2683 H 87.40751503057663 56.29856687680169 29.753795272747197 H 0.0 **** 0.06
2684 H 87.53873797220052 54.74765298740701 28.8883666466401 H 0.0 **** 0.06
2685 H 87.32518311163568 56.26048386891617 27.974781420921104 H 0.0 **** 0.06
2686 C 46.27886770571257 124.30252632361707 77.66852847887546 C 0.0 **** -0.24
2687 H 46.31453240347008 125.33444935155346 77.32000649373899 H 0.0 **** 0.06
2688 H 45.28302350796656 124.08402260701837 78.05476441050311 H 0.0 **** 0.06
2689 H 47.01492603282037 124.16010487245349 78.45948167177957 H 0.0 **** 0.06
2690 H 46.5021621131134 123.63048215777243 76.8393903718248 H 0.0 **** 0.06
2691 C 58.017118778461594 12.31772210503955 45.667673661039544 C 0.0 **** -0.24
2692 H 58.80087575082324 13.07445752270543 45.67886144391096 H 0.0 **** 0.06
2693 H 58.014094808686394 11.784202858916416 46.619047334089345 H 0.0 **** 0.06
2694 H 58.20239329707657 11.613430869171694 44.857115288704506 H 0.0 **** 0.06
2695 H 57.05005642455795 12.798633329881596 45.517875301095046 H 0.0 **** 0.06
2696 C 83.88707490971952 113.61629766327448 106.6319369944186 C 0.0 **** -0.24
2697 H 82.85129515711286 113.67925813272797 106.29760031335823 H 0.0 **** 0.06
2698 H 83.99277363302001 114.13282593028796 107.58641647807289 H 0.0 **** 0.06
2699 H 84.536353366456 114.0838886456956 105.89148720845341 H 0.0 **** 0.06
2700 H 84.1666674273058 112.57033509443374 106.75170741131762 H 0.0 **** 0.06
2701 C 123.77160256965288 75.4925349087809 96.9416179680957 C 0.0 **** -0.24
2702 H 124.52577244968705 76.26477344607011 96.78831705909309 H 0.0 **** 0.06
2703 H 122.79008415563428 75.88535457611152 96.67562541755015 H 0.0 **** 0.06
2704 H 123.77015925825627 75.1887032760962 97.98804518546339 H 0.0 **** 0.06
2705 H 124.00081078419873 74.63185555286114 96.31324837104762 H 0.0 **** 0.06
2706 C 91.1680215874583 80.75723549159389 83.82684871276658 C 0.0 **** -0.24
2707 H 90.42789481327469 80.59012807749946 84.60920678996811 H 0.0 **** 0.06
2708 H 92.15315245879513 80.46028862147564 84.18939048507973 H 0.0 **** 0.06
2709 H 91.18252484970536 81.81389165254032 83.56041842291006 H 0.0 **** 0.06
2710 H 90.90948578256794 80.16474661020474 82.94858740178158 H 0.0 **** 0.06
2711 C 56.76843089751006 118.2949036086074 21.167238815861722 C 0.0 **** -0.24
2712 H 56.52202761332413 117.8753710750199 22.142808701095305 H 0.0 **** 0.06
2713 H 57.27207827490329 119.2531477229789 21.301060841891825 H 0.0 **** 0.06
2714 H 55.85362926999474 118.44124635112638 20.593933112341787 H 0.0 **** 0.06
2715 H 57.42696295649287 117.6088216244377 20.633797357145 H 0.0 **** 0.06
2716 C 33.098153027790886 89.53762473867911 87.78418219851602 C 0.0 **** -0.24
2717 H 33.21845642486437 90.50820151445342 88.26562641294248 H 0.0 **** 0.06
2718 H 33.12928277199353 89.66218364960622 86.70163670794744 H 0.0 **** 0.06
2719 H 32.13997775298159 89.1052077476906 88.07259233081942 H 0.0 **** 0.06
2720 H 33.90417351673656 88.87411989450868 88.09780140859175 H 0.0 **** 0.06
2721 C 85.55980159452686 102.23229640032508 40.46659805166115 C 0.0 **** -0.24
2722 H 85.01585292327022 102.06487939212406 39.53685932100586 H 0.0 **** 0.06
2723 H 86.47770762884178 101.64264876318776 40.46201560989982 H 0.0 **** 0.06
2724 H 84.93850920995463 101.931855383286 41.31038278883466 H 0.0 **** 0.06
2725 H 85.80799745165757 103.2899923407324 40.55602865528988 H 0.0 **** 0.06
2726 C 79.10049737789811 97.49268168227871 83.52455351721228 C 0.0 **** -0.24
2727 H 78.41168938118878 97.56590756604365 84.36625371923249 H 0.0 **** 0.06
2728 H 79.96220922200311 96.88968309830818 83.81125044043323 H 0.0 **** 0.06
2729 H 79.43373856202444 98.49066365876655 83.23967635308381 H 0.0 **** 0.06
2730 H 78.59300392313318 97.02488612718707 82.68093013085115 H 0.0 **** 0.06
2731 C 50.520589489095826 7.026557751015435 42.656457491855804 C 0.0 **** -0.24
2732 H 51.22307141638984 6.469247100077279 43.27480496499888 H 0.0 **** 0.06
2733 H 50.870574930965205 8.052711750103565 42.5450669343917 H 0.0 **** 0.06
2734 H 49.53924323817019 7.026886830839906 43.132395736381014 H 0.0 **** 0.06
2735 H 50.44872889031619 6.55786992024689 41.67584676939819 H 0.0 **** 0.06
2736 C 36.563350197795245 52.06396772768106 112.24861863840893 C 0.0 **** -0.24
2737 H 37.65185129881149 52.127451063021624 112.23657808452798 H 0.0 **** 0.06
2738 H 36.26035532302032 51.01984576874595 112.1592192595247 H 0.0 **** 0.06
2739 H 36.15663377719744 52.6336446447078 111.4127749351064 H 0.0 **** 0.06
2740 H 36.18556880197707 52.47294989345458 113.1856477239197 H 0.0 **** 0.06
2741 C 36.92815584638518 93.74413883339504 58.361324971535396 C 0.0 **** -0.24
2742 H 37.28842470901562 92.7924074868917 57.968864045200974 H 0.0 **** 0.06
2743 H 35.92152809543479 93.61437548174192 58.75842538183889 H 0.0 **** 0.06
2744 H 36.91092716185589 94.48323259592605 57.560505218314916 H 0.0 **** 0.06
2745 H 37.59137278463004 94.08392284746535 59.156085792239594 H 0.0 **** 0.06
2746 C 21.27735823442518 9.795089085728108 65.91790585157867 C 0.0 **** -0.24
2747 H 21.913048017002154 9.227774051748668 65.23814864855001 H 0.0 **** 0.06
2748 H 21.839426373284397 10.04077598394585 66.81964147385878 H 0.0 **** 0.06
2749 H 20.406171011078527 9.198144588334145 66.18412886549282 H 0.0 **** 0.06
2750 H 20.95355012639436 10.713719559347055 65.42910011746301 H 0.0 **** 0.06
2751 C 0.7259430093758681 74.61343387702806 51.33940892593748 C 0.0 **** -0.24
2752 H 0.08467356233842338 73.80729980989662 50.981477189862375 H 0.0 **** 0.06
2753 H 1.3198289828430632 74.25814143504172 52.18200994750154 H 0.0 **** 0.06
2754 H 0.10817266579388729 75.45363815287956 51.659154725967795 H 0.0 **** 0.06
2755 H 1.3882862502959767 74.93403798833702 50.53584181984206 H 0.0 **** 0.06
2756 C 15.917241212001784 109.77321919474196 100.15452875548465 C 0.0 **** -0.24
2757 H 15.473639100279623 108.98985184292047 100.76844521950426 H 0.0 **** 0.06
2758 H 15.139234897373221 110.24976079417746 99.55784290641179 H 0.0 **** 0.06
2759 H 16.665843048539106 109.33680838058143 99.49359867110155 H 0.0 **** 0.06
2760 H 16.388079337629964 110.51598661678861 100.7979490571679 H 0.0 **** 0.06
2761 C 105.5232911208874 94.4469894687604 49.03238520436208 C 0.0 **** -0.24
2762 H 106.36984013366565 93.91554805806909 49.46737774830981 H 0.0 **** 0.06
2763 H 104.78345934382345 94.64773799634125 49.80819558975528 H 0.0 **** 0.06
2764 H 105.07287994773772 93.83527406518574 48.2511005485699 H 0.0 **** 0.06
2765 H 105.86618629852342 95.38863293911444 48.60505264820238 H 0.0 **** 0.06
2766 C 28.01530289089716 48.308528266331905 118.31837614671892 C 0.0 **** -0.24
2767 H 27.715953817522987 49.24624547852281 117.85158368699226 H 0.0 **** 0.06
2768 H 27.16299360085629 47.87733607305614 118.84418116055821 H 0.0 **** 0.06
2769 H 28.82228446329035 48.495802884590205 119.02648464485023 H 0.0 **** 0.06
2770 H 28.35774536234706 47.61465200372709 117.5513021339539 H 0.0 **** 0.06
2771 C 8.237069115294219 21.36124951674472 14.020898710524655 C 0.0 **** -0.24
2772 H 9.269313593908691 21.07152646907997 13.825193367746945 H 0.0 **** 0.06
2773 H 8.034937636826612 21.28236312331066 15.089925653932593 H 0.0 **** 0.06
2774 H 7.563766427738869 20.701576575950128 13.474249126424354 H 0.0 **** 0.06
2775 H 8.080650398019998 22.390166279519235 13.697299925232684 H 0.0 **** 0.06
2776 C 49.32340100583178 29.417685068555528 5.54723059351387 C 0.0 **** -0.24
2777 H 49.31560755702367 29.0837755720475 4.50948667664246 H 0.0 **** 0.06
2778 H 49.36361821225006 30.50678296123108 5.5772154720913 H 0.0 **** 0.06
2779 H 50.19668072192843 29.00734485558398 6.053636674455518 H 0.0 **** 0.06
2780 H 48.41846859776399 29.073608894559214 6.046390429502136 H 0.0 **** 0.06
2781 C 18.930585519787684 108.36702497175756 84.82554326301809 C 0.0 **** -0.24
2782 H 19.682110054779297 109.1260803968523 85.04609376094109 H 0.0 **** 0.06
2783 H 18.69807523764179 107.8107769393028 85.73399735514656 H 0.0 **** 0.06
2784 H 19.316886108303756 107.68400475923698 84.06912080045666 H 0.0 **** 0.06
2785 H 18.02735458362516 108.84888857103982 84.45199537392332 H 0.0 **** 0.06
2786 C 25.742393523942027 21.369318103012404 19.285088899024856 C 0.0 **** -0.24
2787 H 25.692971283851307 21.552444269523136 18.212440366985305 H 0.0 **** 0.06
2788 H 25.244872687007856 20.42635878717573 19.515916872369218 H 0.0 **** 0.06
2789 H 25.24634740771493 22.181539042443944 19.815942056332318 H 0.0 **** 0.06
2790 H 26.78606869093788 21.315488945440606 19.596728655022048 H 0.0 **** 0.06
2791 C 107.69981349255596 44.058059605908426 17.8626910440492 C 0.0 **** -0.24
2792 H 108.63450053274137 44.50530743829096 17.522771524013564 H 0.0 **** 0.06
2793 H 107.05560134281943 44.83528814404103 18.27508923721399 H 0.0 **** 0.06
2794 H 107.91058178119289 43.31379296198062 18.63074352063765 H 0.0 **** 0.06
2795 H 107.19852297228546 43.579522716252214 17.020676774804173 H 0.0 **** 0.06
2796 C 68.12374226663468 19.94694516886625 62.73367934693705 C 0.0 **** -0.24
2797 H 68.6516903960163 20.75721889345381 62.23115874561147 H 0.0 **** 0.06
2798 H 67.23775350243369 19.677680971906312 62.15775359977792 H 0.0 **** 0.06
2799 H 67.82429081777258 20.272621280908865 63.7302417625382 H 0.0 **** 0.06
2800 H 68.78016486289539 19.08144300985535 62.81676983884593 H 0.0 **** 0.06
2801 C 63.52204627508104 103.73367676084192 24.423500550512642 C 0.0 **** -0.24
2802 H 64.53820059234599 104.09502690247528 24.583050581461578 H 0.0 **** 0.06
2803 H 63.21710257248874 103.9497442371688 23.399286743497896 H 0.0 **** 0.06
2804 H 62.84558480891093 104.23335098072018 25.117355937755008 H 0.0 **** 0.06
2805 H 63.48846427941179 102.6577738907764 24.593835366986525 H 0.0 **** 0.06
2806 C 33.227504029637856 80.06707902194958 35.065899526364774 C 0.0 **** -0.24
2807 H 34.03359310356191 80.7490462154262 34.795857230069785 H 0.0 **** 0.06
2808 H 33.5871209683975 79.35396436595735 35.807697243273466 H 0.0 **** 0.06
2809 H 32.893003990534254 79.53083391607608 34.17824160864092 H 0.0 **** 0.06
2810 H 32.39542700895416 80.63558053382887 35.481909859122936 H 0.0 **** 0.06
2811 C 0.2857322121467405 73.57847224062621 10.314916980424844 C 0.0 **** -0.24
2812 H 1.018181990904523 72.79976735560766 10.529776889160807 H 0.0 **** 0.06
2813 H 0.7906019216502642 74.43940594496652 9.873272775630294 H 0.0 **** 0.06
2814 H -0.20535538393261277 73.87987969889983 11.239944116218414 H 0.0 **** 0.06
2815 H -0.4573676601480514 73.19477304630848 9.616241672020188 H 0.0 **** 0.06
2816 C 27.79122463894757 3.93023299170477 38.46335206014024 C 0.0 **** -0.24
2817 H 26.814547211013036 3.922362698457192 38.94709161809209 H 0.0 **** 0.06
2818 H 28.28622698657756 4.881972699612874 38.65892804032208 H 0.0 **** 0.06
2819 H 27.66402748194193 3.8009684398909656 37.38742158129196 H 0.0 **** 0.06
2820 H 28.398902527230774 3.1154891139933056 38.85721842160672 H 0.0 **** 0.06
2821 C 5.085839783671105 77.7811959324138 123.4913232902787 C 0.0 **** -0.24
2822 H 6.004928560811436 77.87070037279997 122.9105672447767 H 0.0 **** 0.06
2823 H 4.8671423269847764 76.72797398032438 123.66450410679755 H 0.0 **** 0.06
2824 H 4.263245865480769 78.2386282997158 122.94233828266506 H 0.0 **** 0.06
2825 H 5.211049106950611 78.2897069438333 124.4478069223139 H 0.0 **** 0.06
2826 C 3.2400065486190055 121.67351122501208 122.01289172592055 C 0.0 **** -0.24
2827 H 3.9200302104291254 122.23677407657416 121.37461636814044 H 0.0 **** 0.06
2828 H 2.6653301887574266 120.9745843420315 121.40409203004026 H 0.0 **** 0.06
2829 H 2.5600986888562183 122.36068550235868 122.51618637622869 H 0.0 **** 0.06
2830 H 3.813751876528592 121.12076767093615 122.75757463250568 H 0.0 **** 0.06
2831 C 23.779168929539985 56.20693600620217 9.683037296253957 C 0.0 **** -0.24
2832 H 22.71925401476925 56.27398061967574 9.436249657330535 H 0.0 **** 0.06
2833 H 23.906077688339856 56.27711077460441 10.763486921147745 H 0.0 **** 0.06
2834 H 24.31734339974914 57.022084501106235 9.199518044797685 H 0.0 **** 0.06
2835 H 24.172807652744652 55.25195043648131 9.332043088535414 H 0.0 **** 0.06
2836 C 91.27646278837557 57.1251245702648 43.508660383820256 C 0.0 **** -0.24
2837 H 92.1395988371587 56.79989174474963 44.089648756891165 H 0.0 **** 0.06
2838 H 91.44382183236277 58.14068414306632 43.14820306907379 H 0.0 **** 0.06
2839 H 90.3864541049752 57.10387414490032 44.136394077585976 H 0.0 **** 0.06
2840 H 91.13826099629313 56.45623744461699 42.65846037690639 H 0.0 **** 0.06
2841 C 6.030226657305434 59.83489344113434 20.2966372071935 C 0.0 **** -0.24
2842 H 7.112210751314535 59.96313465517139 20.260841463705873 H 0.0 **** 0.06
2843 H 5.544622678419216 60.800320111271844 20.15854751024557 H 0.0 **** 0.06
2844 H 5.74622646785474 59.41880678598187 21.26368091909302 H 0.0 **** 0.06
2845 H 5.719655782105178 59.15405969202021 19.50309267134864 H 0.0 **** 0.06
2846 C 95.03831029320133 29.416404354988423 64.44932222244383 C 0.0 **** -0.24
2847 H 95.80546039593054 30.0808873078823 64.05115660545594 H 0.0 **** 0.06
2848 H 95.32519649064136 29.0917303033089 65.45041705998665 H 0.0 **** 0.06
2849 H 94.93684667607346 28.547583323044577 63.80018450877044 H 0.0 **** 0.06
2850 H 94.087927772831 29.94713015390935 64.4980341690837 H 0.0 **** 0.06
2851 C 24.44010594072438 49.77107006736995 27.8686612761026 C 0.0 **** -0.24
2852 H 23.878487513757477 49.889274780088215 26.941400172452774 H 0.0 **** 0.06
2853 H 24.56478751297567 48.70977379917764 28.0847595640916 H 0.0 **** 0.06
2854 H 23.897697470619846 50.24816823518526 28.68444988600443 H 0.0 **** 0.06
2855 H 25.419345165620882 50.238047924414474 27.76087001938427 H 0.0 **** 0.06
2856 C 60.04894565686857 112.21800710712296 53.74553283817687 C 0.0 **** -0.24
2857 H 60.28995419747096 111.54087450038861 52.92673190648347 H 0.0 **** 0.06
2858 H 59.727523869276865 111.6398335059971 54.61213543163737 H 0.0 **** 0.06
2859 H 59.246418478290536 112.88908812425109 53.4380508902112 H 0.0 **** 0.06
2860 H 60.93118091151567 112.80262299473156 54.00462139509014 H 0.0 **** 0.06
2861 C 97.51871453157946 110.50337698365868 7.192381868022252 C 0.0 **** -0.24
2862 H 98.51078251905503 110.88771062508494 7.432041072177114 H 0.0 **** 0.06
2863 H 97.15251188380171 110.9860571312881 6.285571374071495 H 0.0 **** 0.06
2864 H 96.83840663633234 110.7151714287892 8.017389746209659 H 0.0 **** 0.06
2865 H 97.57460372999867 109.42653999459125 7.034672720571095 H 0.0 **** 0.06
2866 C 81.97715063031784 75.69205087343747 2.2292431843802802 C 0.0 **** -0.24
2867 H 81.50867027887308 76.67465792221994 2.2756565843998118 H 0.0 **** 0.06
2868 H 82.22861154647953 75.45660124543987 1.1947502519794426 H 0.0 **** 0.06
2869 H 81.2866649484789 74.94205118502266 2.6152479856301625 H 0.0 **** 0.06
2870 H 82.88543194350916 75.69419343822736 2.832699254162975 H 0.0 **** 0.06
2871 C 122.65726188960912 120.09403329560476 113.93439902389204 C 0.0 **** -0.24
2872 H 123.27312921698115 120.87921779432679 114.37156304538286 H 0.0 **** 0.06
2873 H 122.04235669522052 119.63927473303502 114.71228594476679 H 0.0 **** 0.06
2874 H 123.29998545879403 119.33393227233375 113.48918828004702 H 0.0 **** 0.06
2875 H 122.01376955178796 120.52109010566951 113.16601062360539 H 0.0 **** 0.06
2876 C 72.5886846109386 35.78857118833852 110.10886349109137 C 0.0 **** -0.24
2877 H 72.83203041576355 35.170149122248176 110.97284246977028 H 0.0 **** 0.06
2878 H 72.40462202436947 36.8118396573734 110.4355641024948 H 0.0 **** 0.06
2879 H 71.69692753208774 35.39621345551603 109.62145980245401 H 0.0 **** 0.06
2880 H 73.42304453328916 35.77511818475466 109.40681769280138 H 0.0 **** 0.06
2881 C 9.584066013975587 40.77283019437007 60.63262785612602 C 0.0 **** -0.24
2882 H 8.636001182566162 40.53657182744197 60.14996260960589 H 0.0 **** 0.06
2883 H 9.916600293583059 41.7622161992888 60.31656922156367 H 0.0 **** 0.06
2884 H 10.330304097085303 40.03010912815487 60.34883938111358 H 0.0 **** 0.06
2885 H 9.45335848266808 40.76242362259478 61.715140212221115 H 0.0 **** 0.06
2886 C 45.797048268629766 46.59648610930563 53.76857650791351 C 0.0 **** -0.24
2887 H 46.69214200302639 46.45727354630495 53.16246697375868 H 0.0 **** 0.06
2888 H 46.02751184239938 47.244605821187236 54.61337649646805 H 0.0 **** 0.06
2889 H 45.45355724273571 45.62908905756558 54.13583745029018 H 0.0 **** 0.06
2890 H 45.014300502749805 47.05339866470902 53.16160150496739 H 0.0 **** 0.06
2891 C 35.39517649203299 44.508811358310055 96.1148815660861 C 0.0 **** -0.24
2892 H 34.61781180580629 43.92402667242729 96.60751506945276 H 0.0 **** 0.06
2893 H 35.2433906234179 45.56652884340893 96.32985243464005 H 0.0 **** 0.06
2894 H 35.34415233361794 44.34506753843968 95.03834814045497 H 0.0 **** 0.06
2895 H 36.372529864534215 44.19798906945374 96.4844212966708 H 0.0 **** 0.06
2896 C 73.33482110118834 123.03591981780215 99.65069389969085 C 0.0 **** -0.24
2897 H 72.84535332792808 122.15050379122397 100.055964733635 H 0.0 **** 0.06
2898 H 73.34590888855189 123.82254687923256 100.40630737782152 H 0.0 **** 0.06
2899 H 72.79019692430529 123.38242813681416 98.77287549472607 H 0.0 **** 0.06
2900 H 74.35786982652414 122.78779037989318 99.36931025478594 H 0.0 **** 0.06
2901 C 47.67017460973213 102.25590631612354 59.96417102281606 C 0.0 **** -0.24
2902 H 48.43798530939836 102.4649990128656 60.708788817123406 H 0.0 **** 0.06
2903 H 46.710143910813684 102.63631761446644 60.314579448627455 H 0.0 **** 0.06
2904 H 47.59999922955754 101.17946586946843 59.80628462910397 H 0.0 **** 0.06
2905 H 47.93250848100149 102.74402787940986 59.02488828980637 H 0.0 **** 0.06
2906 C 16.81229153594478 85.83224001048688 60.19781044292705 C 0.0 **** -0.24
2907 H 16.684652870287092 86.6379106760005 60.92120306697781 H 0.0 **** 0.06
2908 H 16.694850419427397 86.22792112710266 59.18899046709912 H 0.0 **** 0.06
2909 H 16.06289562738265 85.06163368008174 60.37693143893719 H 0.0 **** 0.06
2910 H 17.807775227620173 85.40244862549326 60.306135217016205 H 0.0 **** 0.06
2911 C 69.35173194288551 7.006143028090037 75.97314887020606 C 0.0 **** -0.24
2912 H 69.3890091995402 7.087973522713185 74.88742707449741 H 0.0 **** 0.06
2913 H 68.31208821835799 7.0026718640892796 76.30199934230843 H 0.0 **** 0.06
2914 H 69.87051012503882 7.8545474622720235 76.41947702561397 H 0.0 **** 0.06
2915 H 69.83461280897238 6.0802575488355615 76.28454543116474 H 0.0 **** 0.06
2916 C 33.64094680862482 112.79623979597733 54.313590259797195 C 0.0 **** -0.24
2917 H 34.4957904288311 112.30783298627227 53.84429402365657 H 0.0 **** 0.06
2918 H 32.862571841609906 112.9606089470094 53.56792549411165 H 0.0 **** 0.06
2919 H 33.95318804700517 113.75251741049038 54.73181050559782 H 0.0 **** 0.06
2920 H 33.25384910107691 112.1602344679298 55.109857997417805 H 0.0 **** 0.06
2921 C 76.75111127304353 119.38597723428794 92.97039066863262 C 0.0 **** -0.24
2922 H 76.37130626122485 118.64737788392881 93.67739911430617 H 0.0 **** 0.06
2923 H 77.68125539680132 119.80667291745513 93.35091622180433 H 0.0 **** 0.06
2924 H 76.01520702243698 120.18012625637087 92.8457593988607 H 0.0 **** 0.06
2925 H 76.93489539800812 118.90692002270023 92.00844819764484 H 0.0 **** 0.06
2926 C 19.30698491998683 103.7560840552805 46.326814277061544 C 0.0 **** -0.24
2927 H 19.275754890298202 104.8261695722964 46.532324346856825 H 0.0 **** 0.06
2928 H 19.227169094682637 103.20466454309125 47.263324089903335 H 0.0 **** 0.06
2929 H 20.24846524756765 103.50761388287711 45.83720110383612 H 0.0 **** 0.06
2930 H 18.47568471616188 103.48781591696363 45.67513884938509 H 0.0 **** 0.06
2931 C 36.46398932226933 84.1791916087524 22.30814960141072 C 0.0 **** -0.24
2932 H 36.580158023367574 84.44486934688038 21.257549360891744 H 0.0 **** 0.06
2933 H 35.43399011019849 83.87641984282001 22.49483798200629 H 0.0 **** 0.06
2934 H 36.707612444367726 85.04177696035188 22.929376660067533 H 0.0 **** 0.06
2935 H 37.13506513396777 83.35598976911393 22.5507678757088 H 0.0 **** 0.06
2936 C 105.89529190197644 35.1050372083995 92.52739102616647 C 0.0 **** -0.24
2937 H 105.13526105267235 35.444227773511436 91.82289430898294 H 0.0 **** 0.06
2938 H 105.97732756744035 35.82143001348043 93.34564788072794 H 0.0 **** 0.06
2939 H 106.85413101769612 35.02491053501979 92.01593043632903 H 0.0 **** 0.06
2940 H 105.61221281209735 34.130194217821575 92.9242991686389 H 0.0 **** 0.06
2941 C 80.11218975475168 66.23520331460634 97.62256109356272 C 0.0 **** -0.24
2942 H 80.61998817338247 66.56074652529657 96.71463758670335 H 0.0 **** 0.06
2943 H 79.58270081910527 67.0787070519151 98.06480263778296 H 0.0 **** 0.06
2944 H 80.84554899230267 65.85227898116096 98.33239128559495 H 0.0 **** 0.06
2945 H 79.39896801061127 65.4473701170985 97.37583164989678 H 0.0 **** 0.06
2946 C 79.92112112922331 92.43431914426986 51.77973759757003 C 0.0 **** -0.24
2947 H 79.42429322728464 91.47612275861582 51.63174312495022 H 0.0 **** 0.06
2948 H 80.94447717058722 92.2650084070116 52.11592807816791 H 0.0 **** 0.06
2949 H 79.3814946318048 93.00960134609517 52.53248415160269 H 0.0 **** 0.06
2950 H 79.93340749708597 92.98666163741052 50.84032048949561 H 0.0 **** 0.06
2951 C 32.462202463087266 41.83881555401712 14.569832555084702 C 0.0 **** -0.24
2952 H 32.68952331469096 41.19999718006926 15.423735984141729 H 0.0 **** 0.06
2953 H 31.739105869191235 42.59865203053721 14.86767915391269 H 0.0 **** 0.06
2954 H 32.044044961711265 41.234009072779145 13.765047401559897 H 0.0 **** 0.06
2955 H 33.376514228877355 42.32224195418746 14.224518696606623 H 0.0 **** 0.06
2956 C 38.47861072702793 54.41012227250205 118.52620997608591 C 0.0 **** -0.24
2957 H 38.09329388452093 55.26362862687121 117.96771594612825 H 0.0 **** 0.06
2958 H 39.55522252343249 54.33416467126635 118.3752061143788 H 0.0 **** 0.06
2959 H 37.99630060569879 53.498670714019966 118.17378312976103 H 0.0 **** 0.06
2960 H 38.26752627930773 54.54561712606903 119.58710640105208 H 0.0 **** 0.06
2961 C 59.01466151268154 36.24985134615565 109.2461788062731 C 0.0 **** -0.24
2962 H 58.6550184056519 37.275802985251005 109.32933417973936 H 0.0 **** 0.06
2963 H 60.07916851584372 36.25625635579303 109.01295467220012 H 0.0 **** 0.06
2964 H 58.47069525530438 35.738144951856896 108.45110203024785 H 0.0 **** 0.06
2965 H 58.85223404068209 35.73048615200861 110.19032010268364 H 0.0 **** 0.06
2966 C 0.47834213176145113 109.29182298720173 48.59837956523768 C 0.0 **** -0.24
2967 H 0.40597345128645657 108.24993493683485 48.2879448379241 H 0.0 **** 0.06
2968 H -0.5228421578033249 109.70057538265962 48.737495495667304 H 0.0 **** 0.06
2969 H 1.0019071994796036 109.86325010866886 47.8323969721107 H 0.0 **** 0.06
2970 H 1.0291584654714825 109.35322473537883 49.53773518317041 H 0.0 **** 0.06
2971 C 66.23452940274711 27.110089059190834 28.329296658987687 C 0.0 **** -0.24
2972 H 66.00168487247839 28.153279478280083 28.115638329263277 H 0.0 **** 0.06
2973 H 65.34996197785915 26.617524792438815 28.73460973344237 H 0.0 **** 0.06
2974 H 67.04437328159207 27.059726726988472 29.057202038334935 H 0.0 **** 0.06
2975 H 66.53972441297014 26.609999500153634 27.41031835288038 H 0.0 **** 0.06
2976 C 23.10370921422748 66.76048694195077 43.57848910867705 C 0.0 **** -0.24
2977 H 22.274291533999588 66.28686419859248 44.10292925986994 H 0.0 **** 0.06
2978 H 22.717589655520158 67.36031876948523 42.754098307051706 H 0.0 **** 0.06
2979 H 23.77216481560305 65.9929772926182 43.18735512082489 H 0.0 **** 0.06
2980 H 23.65149117529262 67.4006531763043 44.270045920515216 H 0.0 **** 0.06
2981 C 36.860595191085224 103.29885806342247 44.805523653929754 C 0.0 **** -0.24
2982 H 37.5205810584408 103.85895212839296 45.46870541910255 H 0.0 **** 0.06
2983 H 35.84494931521044 103.31901423556212 45.20203083842614 H 0.0 **** 0.06
2984 H 37.20489130122399 102.26663858132306 44.73912445425003 H 0.0 **** 0.06
2985 H 36.8733221200072 103.75181607793326 43.81370521311743 H 0.0 **** 0.06
2986 C 100.58168870490061 2.324106979791182 35.160953267637524 C 0.0 **** -0.24
2987 H 100.774484427289 3.3492888933634646 35.47492219567255 H 0.0 **** 0.06
2988 H 99.50747380897394 2.1735005901652613 35.05013890669693 H 0.0 **** 0.06
2989 H 100.96982991653744 1.6356595721330223 35.91274004900299 H 0.0 **** 0.06
2990 H 101.07600592595963 2.136093800969718 34.208101646974 H 0.0 **** 0.06
2991 C 46.15344168659158 26.292490551391552 32.5124943056107 C 0.0 **** -0.24
2992 H 45.79036122171385 27.071818165295554 31.841627094914074 H 0.0 **** 0.06
2993 H 45.32146013672076 25.902090169684186 33.098317600812344 H 0.0 **** 0.06
2994 H 46.904731634487916 26.711313370030922 33.181630719586764 H 0.0 **** 0.06
2995 H 46.59567781299614 25.48680677028645 31.926861710070256 H 0.0 **** 0.06
2996 C 53.59645004135746 90.25686347397811 42.54420694303167 C 0.0 **** -0.24
2997 H 52.79418583685802 90.44112810086054 43.25909394781138 H 0.0 **** 0.06
2998 H 54.2953806172643 89.5317411192716 42.962708317077954 H 0.0 **** 0.06
2999 H 54.11986350191984 91.19010339442443 42.33816261030279 H 0.0 **** 0.06
3000 H 53.174324911849055 89.86346085255835 41.619048307487674 H 0.0 **** 0.06
3001 C 53.48708385643438 87.30045279408534 103.60740923011532 C 0.0 **** -0.24
3002 H 52.918026333943615 87.28462671239427 102.67863062169631 H 0.0 **** 0.06
3003 H 53.31087042649874 86.37565701542798 104.15757770359461 H 0.0 **** 0.06
3004 H 53.17110447189782 88.14965667533329 104.2129820850006 H 0.0 **** 0.06
3005 H 54.549655751038415 87.39205553251145 103.3809149721637 H 0.0 **** 0.06
3006 C 34.287500996187106 122.96359544655864 2.776963297335101 C 0.0 **** -0.24
3007 H 34.50951209132592 123.96264365884727 3.153775609227324 H 0.0 **** 0.06
3008 H 33.96242617947675 123.03164150395841 1.7390293985197758 H 0.0 **** 0.06
3009 H 33.49530894713749 122.5172685341755 3.3776876328491596 H 0.0 **** 0.06
3010 H 35.18312147905169 122.34513340805279 2.8389583344624043 H 0.0 **** 0.06
3011 C 13.782771867354995 119.13049027858284 60.44465397144758 C 0.0 **** -0.24
3012 H 12.897488157622547 119.73810962663799 60.63422250547369 H 0.0 **** 0.06
3013 H 14.12976764224507 118.69262183058248 61.38090548341167 H 0.0 **** 0.06
3014 H 14.568682505230896 119.75668002755384 60.02197135745416 H 0.0 **** 0.06
3015 H 13.533839522407789 118.3359403218659 59.74092406375138 H 0.0 **** 0.06
3016 C 76.68183966155692 38.131497412908246 111.17764408047033 C 0.0 **** -0.24
3017 H 77.68599994153499 37.76421531026082 110.96495248200908 H 0.0 **** 0.06
3018 H 76.49489477245305 38.08011513508514 112.25002514591965 H 0.0 **** 0.06
3019 H 75.9519210740271 37.51756174658169 110.65014568973682 H 0.0 **** 0.06
3020 H 76.59622854782782 39.16521886545179 110.8423063154156 H 0.0 **** 0.06
3021 C 74.04145168733507 104.01287270770564 58.40925731294142 C 0.0 **** -0.24
3022 H 73.74300104753357 103.94121571242255 59.45549162505104 H 0.0 **** 0.06
3023 H 73.19535802698829 104.35790734694979 57.81347847998633 H 0.0 **** 0.06
3024 H 74.36141866867072 103.03329183288105 58.054383904031155 H 0.0 **** 0.06
3025 H 74.86519697222741 104.72054156354642 58.31475221877747 H 0.0 **** 0.06
3026 C 38.89258508827051 76.11961452955674 78.3536340494736 C 0.0 **** -0.24
3027 H 37.88052871017794 76.45704920014776 78.57740277506413 H 0.0 **** 0.06
3028 H 39.50903884155903 76.20317591327637 79.2490417818188 H 0.0 **** 0.06
3029 H 39.31420935356107 76.73717712803858 77.56130832093245 H 0.0 **** 0.06
3030 H 38.86362102380798 75.07945152449278 78.0281133170885 H 0.0 **** 0.06
3031 C 43.93635764936931 25.89239017505613 4.407740541385181 C 0.0 **** -0.24
3032 H 44.29614042420883 26.734721149191174 3.8166664306268103 H 0.0 **** 0.06
3033 H 44.775845412831984 25.251257043299816 4.674463706298582 H 0.0 **** 0.06
3034 H 43.21397297481539 25.321432049083484 3.8229457060791674 H 0.0 **** 0.06
3035 H 43.458461356172535 26.26268893623766 5.314113317518178 H 0.0 **** 0.06
3036 C 55.5849640760343 109.76743305503042 36.83458235588523 C 0.0 **** -0.24
3037 H 56.62204114303675 109.57453450988743 36.55954957525552 H 0.0 **** 0.06
3038 H 54.98906273177569 109.90142007592262 35.930888901467085 H 0.0 **** 0.06
3039 H 55.53249773289332 110.670572806226 37.442550756667856 H 0.0 **** 0.06
3040 H 55.19804841945411 108.92276172178906 37.40408063362281 H 0.0 **** 0.06
3041 C 110.29304851597438 29.2819081017916 16.344535981988397 C 0.0 **** -0.24
3042 H 109.36366641340288 28.881512308816497 16.74888953382853 H 0.0 **** 0.06
3043 H 110.23612154430649 29.30573672766326 15.256373671943862 H 0.0 **** 0.06
3044 H 111.12588756658918 28.649074475363875 16.65203306109608 H 0.0 **** 0.06
3045 H 110.44667489326588 30.292954184321516 16.722655670870342 H 0.0 **** 0.06
3046 C 21.499949921333865 60.41642788636753 89.82744502140683 C 0.0 **** -0.24
3047 H 21.941281053447597 61.39628677674534 89.6458160528533 H 0.0 **** 0.06
3048 H 21.268580666814785 59.94015606898827 88.87484693438316 H 0.0 **** 0.06
3049 H 20.584761065453606 60.53263858191859 90.40848647483395 H 0.0 **** 0.06
3050 H 22.20563419523623 59.79730125537482 90.38271406379305 H 0.0 **** 0.06
3051 C 114.16915110556602 14.189806232835643 37.09371124705842 C 0.0 **** -0.24
3052 H 114.03347515130643 15.04400105189093 36.42990857672231 H 0.0 **** 0.06
3053 H 115.23163099823387 14.04603022547894 37.28775916770263 H 0.0 **** 0.06
3054 H 113.76047434080219 13.295354346629082 36.622203133857056 H 0.0 **** 0.06
3055 H 113.64873640297417 14.375335816377454 38.033384075906895 H 0.0 **** 0.06
3056 C 100.08920544390979 34.283795819826906 68.15917006883211 C 0.0 **** -0.24
3057 H 100.88320567456671 34.93446865007057 68.52596322848956 H 0.0 **** 0.06
3058 H 99.2878261833136 34.23692020870331 68.89694489750742 H 0.0 **** 0.06
3059 H 100.48832905171936 33.283483441942536 67.99242121750449 H 0.0 **** 0.06
3060 H 99.6985184538368 34.68018788780901 67.22228177228482 H 0.0 **** 0.06
3061 C 118.95224779843127 75.91726377118145 25.098808453184517 C 0.0 **** -0.24
3062 H 119.7243216647256 76.68599541914189 25.116676468415903 H 0.0 **** 0.06
3063 H 118.12993980234938 76.24360715900205 24.462130153693124 H 0.0 **** 0.06
3064 H 118.58369057545735 75.74925519097673 26.111383124672386 H 0.0 **** 0.06
3065 H 119.37090375789113 74.99121481993707 24.706016928143924 H 0.0 **** 0.06
3066 C 82.24626338555748 84.71901440686425 115.57808534856254 C 0.0 **** -0.24
3067 H 82.90732905968258 84.68572522241352 114.71159717468137 H 0.0 **** 0.06
3068 H 81.84711705109896 83.72267983451323 115.76805726756449 H 0.0 **** 0.06
3069 H 81.42584832322052 85.40879036223251 115.38198098231311 H 0.0 **** 0.06
3070 H 82.80629565987994 85.05853251877654 116.44911518939222 H 0.0 **** 0.06
3071 C 88.72769163432996 8.731319427814505 13.537656298169765 C 0.0 **** -0.24
3072 H 88.92963842581996 9.358997924088424 14.405618225196378 H 0.0 **** 0.06
3073 H 88.0043100608761 9.228496834999813 12.890988329912375 H 0.0 **** 0.06
3074 H 88.32434612478892 7.774490317505034 13.86760645449661 H 0.0 **** 0.06
3075 H 89.65337747471672 8.565172158756265 12.987216942994422 H 0.0 **** 0.06
3076 C 78.64674256341928 21.826980756979637 6.9604152350244135 C 0.0 **** -0.24
3077 H 79.24701830766003 22.439982441478833 6.287493458820222 H 0.0 **** 0.06
3078 H 79.28368758975 21.08437789082714 7.441570879328594 H 0.0 **** 0.06
3079 H 77.86517920397617 21.3223532859636 6.392611108201237 H 0.0 **** 0.06
3080 H 78.19113833135998 22.46220649788492 7.720040635933145 H 0.0 **** 0.06
3081 C 39.194294055409415 79.69923688236418 76.8164514398308 C 0.0 **** -0.24
3082 H 39.5602930283234 80.718956395048 76.93549582827949 H 0.0 **** 0.06
3083 H 39.96205484235932 79.09261547110628 76.33633526979506 H 0.0 **** 0.06
3084 H 38.295963992145346 79.70550083309598 76.19926300858673 H 0.0 **** 0.06
3085 H 38.959972955708935 79.28198057693567 77.79529231208828 H 0.0 **** 0.06
3086 C 31.67595717365967 9.406127807151933 43.23975732342541 C 0.0 **** -0.24
3087 H 32.59524215501932 9.545775126549387 42.669850730386344 H 0.0 **** 0.06
3088 H 31.513353603686255 10.269802445661725 43.88398932177091 H 0.0 **** 0.06
3089 H 31.760671152580386 8.506835453329444 43.85005686092825 H 0.0 **** 0.06
3090 H 30.836243639733794 9.300683019074825 42.553090544189075 H 0.0 **** 0.06
3091 C 30.762624155828973 30.775148343880886 115.76626692216513 C 0.0 **** -0.24
3092 H 30.25084607556073 29.82258862516261 115.62896110329433 H 0.0 **** 0.06
3093 H 30.027202890111653 31.556161436447496 115.96531200207578 H 0.0 **** 0.06
3094 H 31.319962000054545 31.02184642911442 114.86248359618727 H 0.0 **** 0.06
3095 H 31.45012324389728 30.700094602529617 116.60895112344586 H 0.0 **** 0.06
3096 C 118.01989428691977 96.84925033073011 72.35460051154479 C 0.0 **** -0.24
3097 H 117.44133133499842 97.74056470668 72.11085407150887 H 0.0 **** 0.06
3098 H 117.72203114344934 96.03229887103595 71.69710253801006 H 0.0 **** 0.06
3099 H 117.83390662529868 96.56787837310429 73.3919077020868 H 0.0 **** 0.06
3100 H 119.08051897752337 97.05748326914261 72.21908690260778 H 0.0 **** 0.06
3101 C 89.4866455030961 96.10977842043002 52.801146901931986 C 0.0 **** -0.24
3102 H 89.99043305455017 96.89010337796907 53.371252813776124 H 0.0 **** 0.06
3103 H 88.58215790329515 95.80359504576163 53.32756657874208 H 0.0 **** 0.06
3104 H 90.15074383361687 95.25317892086505 52.690981804422705 H 0.0 **** 0.06
3105 H 89.22164966855483 96.4935894789019 51.81605808507953 H 0.0 **** 0.06
3106 C 100.50824063368768 70.83398669673454 54.41411745860998 C 0.0 **** -0.24
3107 H 100.35184968242882 70.10402855236703 55.2081462159866 H 0.0 **** 0.06
3108 H 101.27943040883895 70.47013193193612 53.7335868841092 H 0.0 **** 0.06
3109 H 100.8244784186171 71.78153627116785 54.84989395631621 H 0.0 **** 0.06
3110 H 99.57799931377076 70.97871225557856 53.86489683120456 H 0.0 **** 0.06
3111 C 23.480864685344756 80.02300082661111 29.13371760678774 C 0.0 **** -0.24
3112 H 24.42668545378789 79.5000795309054 29.268902675569798 H 0.0 **** 0.06
3113 H 22.65791016118299 79.31172236628038 29.216985952907983 H 0.0 **** 0.06
3114 H 23.460046815137268 80.4896518508815 28.148930249260978 H 0.0 **** 0.06
3115 H 23.376737486099508 80.79003007165659 29.901238537700372 H 0.0 **** 0.06
3116 C 100.46910650274378 17.235509896166036 84.72653128041136 C 0.0 **** -0.24
3117 H 100.32364961921664 18.169808675482273 84.18306751531506 H 0.0 **** 0.06
3118 H 100.43128612582518 16.399514528288535 84.02881785893693 H 0.0 **** 0.06
3119 H 99.68157668115595 17.12359776810223 85.4724033966111 H 0.0 **** 0.06
3120 H 101.4397734285606 17.252445740843314 85.22279092851163 H 0.0 **** 0.06
3121 C 29.978387045102565 30.659426660996075 29.9385750183975 C 0.0 **** -0.24
3122 H 29.807650372765465 29.761219046748295 29.345075413428276 H 0.0 **** 0.06
3123 H 30.664120256051106 31.320519748714958 29.408048267295783 H 0.0 **** 0.06
3124 H 30.411740313762152 30.38163217909465 30.899830928323126 H 0.0 **** 0.06
3125 H 29.03119392775642 31.172641904088152 30.10268469907774 H 0.0 **** 0.06
3126 C 97.69564944856299 78.35957370406499 114.96578258247814 C 0.0 **** -0.24
3127 H 96.94032626136305 77.8249920118484 115.5418233838935 H 0.0 **** 0.06
3128 H 97.37862575112544 79.39264683565014 114.82127093833651 H 0.0 **** 0.06
3129 H 97.82014185666245 77.87845236289432 113.99537409486737 H 0.0 **** 0.06
3130 H 98.64260853399728 78.34208560378966 115.50423249005757 H 0.0 **** 0.06
3131 C 122.10784104925789 17.45369515324367 89.77949213538112 C 0.0 **** -0.24
3132 H 122.71955485007828 17.21271215342614 90.64910247769711 H 0.0 **** 0.06
3133 H 121.48686923844448 16.59410022234647 89.52321419283467 H 0.0 **** 0.06
3134 H 122.75443016945334 17.69921454590562 88.9373612581012 H 0.0 **** 0.06
3135 H 121.47007237802333 18.306864521216 90.00978724193483 H 0.0 **** 0.06
3136 C 62.50656090417243 84.60524364374844 20.630127364794802 C 0.0 **** -0.24
3137 H 63.01085388865488 85.07479894964976 21.47393720012124 H 0.0 **** 0.06
3138 H 62.49692905057748 85.2939305179593 19.7842027677202 H 0.0 **** 0.06
3139 H 61.48204739559519 84.35980875883645 20.90978160395975 H 0.0 **** 0.06
3140 H 63.03621337796926 83.69410976732652 20.35081024012171 H 0.0 **** 0.06
3141 C 27.851794716863253 87.51885184476282 122.62743344188033 C 0.0 **** -0.24
3142 H 27.93940546004646 86.78307430064763 123.42685164965678 H 0.0 **** 0.06
3143 H 27.162346242728887 87.1497542633341 121.8682677989803 H 0.0 **** 0.06
3144 H 28.831519235764517 87.6853057746111 122.17800965421259 H 0.0 **** 0.06
3145 H 27.475797768024677 88.45612339806127 123.03693192391052 H 0.0 **** 0.06
3146 C 48.51453980008267 95.58191912117175 36.547861661405506 C 0.0 **** -0.24
3147 H 48.92135064581623 95.70262649353589 37.5522367966926 H 0.0 **** 0.06
3148 H 47.96841008323139 94.64036999365965 36.487526791251895 H 0.0 **** 0.06
3149 H 49.32855196086177 95.57849577267203 35.8240404774638 H 0.0 **** 0.06
3150 H 47.837687166357 96.40887074404696 36.32870113808272 H 0.0 **** 0.06
3151 C 3.4203745042574383 53.391195420464555 40.52589652627478 C 0.0 **** -0.24
3152 H 4.417946704627596 52.958727033201285 40.594899742400656 H 0.0 **** 0.06
3153 H 2.6796876253099953 52.64296900128301 40.8101463143297 H 0.0 **** 0.06
3154 H 3.234228289279116 53.716196065740036 39.5022995009644 H 0.0 **** 0.06
3155 H 3.349399093731023 54.24676496025228 41.19762933721542 H 0.0 **** 0.06
3156 C 124.06096461820157 29.180084692957564 15.176588411939406 C 0.0 **** -0.24
3157 H 123.1881379930141 29.730024942251134 15.530656474980958 H 0.0 **** 0.06
3158 H 124.16614813662821 28.257645814829516 15.748693046377582 H 0.0 **** 0.06
3159 H 124.95318337858872 29.79285642329461 15.307741877845785 H 0.0 **** 0.06
3160 H 123.9351759784125 28.941837785985 14.121112568230842 H 0.0 **** 0.06
3161 C 95.85439432100374 84.92346696675966 22.46018990864522 C 0.0 **** -0.24
3162 H 95.89727292980373 84.0057378980009 23.047209940759807 H 0.0 **** 0.06
3163 H 96.68788784442293 85.56922728172206 22.73493309928481 H 0.0 **** 0.06
3164 H 94.91449836913354 85.43893615148549 22.660873478447833 H 0.0 **** 0.06
3165 H 95.91575826713462 84.67921627642698 21.399685418798796 H 0.0 **** 0.06
3166 C 18.57078386350031 123.85326200497673 5.763872338296579 C 0.0 **** -0.24
3167 H 18.675072589501497 124.30396115341125 6.750853010920395 H 0.0 **** 0.06
3168 H 18.143091047742644 124.58179999204799 5.0744929011709985 H 0.0 **** 0.06
3169 H 17.91362126626217 122.98572328473608 5.829337081700345 H 0.0 **** 0.06
3170 H 19.54965948187646 123.54034937619986 5.401622595018182 H 0.0 **** 0.06
3171 C 0.87802913580623 111.07175280990103 100.66962109455608 C 0.0 **** -0.24
3172 H 1.1057632726804059 111.23892705478843 99.61662362578875 H 0.0 **** 0.06
3173 H 0.21288514793630497 110.21410839973512 100.76626066030406 H 0.0 **** 0.06
3174 H 0.3926904300659402 111.95773521314428 101.08009920313646 H 0.0 **** 0.06
3175 H 1.802083501384459 110.87835165790668 101.21414493608904 H 0.0 **** 0.06
3176 C 47.746434980744766 114.41038247937206 6.46697205257718 C 0.0 **** -0.24
3177 H 47.688226779686545 114.68373932465585 7.5202201298155344 H 0.0 **** 0.06
3178 H 47.690227423268425 113.32673744894726 6.368794606045068 H 0.0 **** 0.06
3179 H 48.68961776819731 114.76574607587656 6.051064982200145 H 0.0 **** 0.06
3180 H 46.91647222530793 114.8686912053468 5.927464181810638 H 0.0 **** 0.06
3181 C 106.71223174998613 50.12078704526033 98.1226346525134 C 0.0 **** -0.24
3182 H 106.79327097836699 49.03449346343547 98.15891956273293 H 0.0 **** 0.06
3183 H 105.93988524544994 50.40356925968558 97.4064594837615 H 0.0 **** 0.06
3184 H 107.666899610028 50.54606388733612 97.81423466557702 H 0.0 **** 0.06
3185 H 106.44920119214925 50.49808289360777 99.11102500774386 H 0.0 **** 0.06
3186 C 99.00789753672865 19.447725842734485 52.32645783882279 C 0.0 **** -0.24
3187 H 97.99721905930471 19.251817017135636 52.685994358293186 H 0.0 **** 0.06
3188 H 99.5362405950498 18.503490426243047 52.1957108198155 H 0.0 **** 0.06
3189 H 99.53752465985062 20.063253803085217 53.0534936975985 H 0.0 **** 0.06
3190 H 98.95818405698127 19.97313908661613 51.373371202716584 H 0.0 **** 0.06
3191 C 109.71822774574986 59.081846595660494 120.76713527644603 C 0.0 **** -0.24
3192 H 110.67728814850008 59.2136751996982 120.26576406264343 H 0.0 **** 0.06
3193 H 108.9277150395791 59.52122546478236 120.15875663030485 H 0.0 **** 0.06
3194 H 109.74616655933916 59.57533447886274 121.73918357624538 H 0.0 **** 0.06
3195 H 109.52338637255647 58.01861996900752 120.90520646545014 H 0.0 **** 0.06
3196 C 66.95011309347683 112.76722551990588 12.22027094451455 C 0.0 **** -0.24
3197 H 67.89258540650079 113.31366717159972 12.257836569641317 H 0.0 **** 0.06
3198 H 66.92672227288784 112.1429546786215 11.326621944938122 H 0.0 **** 0.06
3199 H 66.12083212516251 113.47439601866142 12.191087085272734 H 0.0 **** 0.06
3200 H 66.859035999029 112.13779209727949 13.104936521694956 H 0.0 **** 0.06
3201 C 45.315228652072335 9.130849800722132 98.06105170650733 C 0.0 **** -0.24
3202 H 44.759562978360776 10.060030838943192 97.93408725134302 H 0.0 **** 0.06
3203 H 44.714388061723724 8.29556973050569 97.70046533721032 H 0.0 **** 0.06
3204 H 45.544100784782415 8.985824268918577 99.11729121544028 H 0.0 **** 0.06
3205 H 46.24403948385725 9.18264972649149 97.49276223318637 H 0.0 **** 0.06
3206 C 57.276232179100475 81.62601207976002 43.0338054645251 C 0.0 **** -0.24
3207 H 57.00022749749877 81.16213536693954 43.98110982564495 H 0.0 **** 0.06
3208 H 56.37637524993403 81.81090486541365 42.4456983630408 H 0.0 **** 0.06
3209 H 57.940313043179174 80.96072946717356 42.48322641892649 H 0.0 **** 0.06
3210 H 57.785360340511204 82.57028613704932 43.22762946913844 H 0.0 **** 0.06
3211 C 30.2749781369362 34.10798467120879 22.256968129188152 C 0.0 **** -0.24
3212 H 29.58178442223013 34.56727267511082 21.55169530840604 H 0.0 **** 0.06
3213 H 31.218054866844426 34.65493200222269 22.247768458435473 H 0.0 **** 0.06
3214 H 30.452497417295774 33.07200244051118 21.96705009150196 H 0.0 **** 0.06
3215 H 29.847293338024684 34.13739010085206 23.258949526931616 H 0.0 **** 0.06
3216 C 6.6670955117453445 65.6640498609143 71.07861242957469 C 0.0 **** -0.24
3217 H 7.388012836312953 65.69222314427157 71.89643163384312 H 0.0 **** 0.06
3218 H 7.1846156704828275 65.82640770539649 70.13297479305264 H 0.0 **** 0.06
3219 H 5.921421118737356 66.4447120369208 71.22411464579606 H 0.0 **** 0.06
3220 H 6.176217819006467 64.69061828415317 71.06158886755341 H 0.0 **** 0.06
3221 C 98.35083763083475 24.593362776675264 10.492622576328046 C 0.0 **** -0.24
3222 H 97.26400885627248 24.592344402781634 10.578761489681849 H 0.0 **** 0.06
3223 H 98.63914812601251 24.19343999513262 9.520780766178028 H 0.0 **** 0.06
3224 H 98.77811365260408 23.975182282255673 11.282859150205834 H 0.0 **** 0.06
3225 H 98.72049795099139 25.614454571862495 10.589990618859929 H 0.0 **** 0.06
3226 C 109.70247322827629 106.09399515692982 121.1392989311019 C 0.0 **** -0.24
3227 H 109.93656257467171 105.33592063712892 121.88671240927783 H 0.0 **** 0.06
3228 H 109.71838869761606 107.07992369521682 121.6045734297507 H 0.0 **** 0.06
3229 H 108.71271813030089 105.90223764735818 120.72559543790425 H 0.0 **** 0.06
3230 H 110.44402683789573 106.0570379695513 120.34022809101606 H 0.0 **** 0.06
3231 C 109.47536021903812 94.57461272036133 114.62483328714687 C 0.0 **** -0.24
3232 H 108.9825185156538 95.46282778284694 114.22884743740413 H 0.0 **** 0.06
3233 H 110.25698768528156 94.25613395028456 113.93508370557123 H 0.0 **** 0.06
3234 H 108.74404966933531 93.77441129653191 114.74095518906535 H 0.0 **** 0.06
3235 H 109.91723245206288 94.8066424167642 115.59409118921334 H 0.0 **** 0.06
3236 C 57.023888657091874 27.485421725225734 93.58414072572202 C 0.0 **** -0.24
3237 H 56.5984192187381 28.35979070259451 94.07605568237813 H 0.0 **** 0.06
3238 H 58.04917009368816 27.700891605011222 93.28411841140183 H 0.0 **** 0.06
3239 H 56.430777587343016 27.24085637828155 92.70197302692958 H 0.0 **** 0.06
3240 H 57.01554874947962 26.64061093315506 94.27336704299938 H 0.0 **** 0.06
3241 C 91.99872618760824 53.82725540676148 117.48531568202614 C 0.0 **** -0.24
3242 H 92.23835042119765 53.66361000738894 116.434326075384 H 0.0 **** 0.06
3243 H 92.87918016910001 54.210222790881744 118.00227363989106 H 0.0 **** 0.06
3244 H 91.69195335294475 52.88564807228326 117.93897930091435 H 0.0 **** 0.06
3245 H 91.18734047019643 54.55090276117241 117.56500536175679 H 0.0 **** 0.06
3246 C 69.25728488224466 76.77878683886036 4.186843270683461 C 0.0 **** -0.24
3247 H 69.36010628614694 77.72200409550175 3.6499003536679115 H 0.0 **** 0.06
3248 H 68.73559317752677 76.95052651251922 5.127272878636575 H 0.0 **** 0.06
3249 H 70.24702014391056 76.36803189144251 4.389093736554951 H 0.0 **** 0.06
3250 H 68.6892808999436 76.07523347601978 3.5778819686183834 H 0.0 **** 0.06
3251 C 108.51664988227067 25.855036629905513 35.024935267764164 C 0.0 **** -0.24
3252 H 108.87281774577387 24.897923910433377 35.40626637677488 H 0.0 **** 0.06
3253 H 109.36140734274687 26.431561295152335 34.646797861978655 H 0.0 **** 0.06
3254 H 108.03031435554301 26.4074055303073 35.82939415243362 H 0.0 **** 0.06
3255 H 107.80363711721216 25.682631559707005 34.2190500608624 H 0.0 **** 0.06
3256 C 49.49214046870057 119.67050441480045 98.99373481598823 C 0.0 **** -0.24
3257 H 48.57908621219815 119.9174468743977 98.45276438219008 H 0.0 **** 0.06
3258 H 50.29661122783796 119.4865183139247 98.28163256206167 H 0.0 **** 0.06
3259 H 49.32700051997415 118.77551298813084 99.59487035252752 H 0.0 **** 0.06
3260 H 49.76480691849967 120.50034085096343 99.64545038456282 H 0.0 **** 0.06
3261 C 3.230842552855677 15.503474582032055 119.62871975496515 C 0.0 **** -0.24
3262 H 2.305557083908255 15.347842568098798 120.1832701795807 H 0.0 **** 0.06
3263 H 3.341547868422623 16.56347233084111 119.39708234867648 H 0.0 **** 0.06
3264 H 3.19897254586067 14.93066304520488 118.7018664993405 H 0.0 **** 0.06
3265 H 4.076218108991043 15.172024380764498 120.23130552880201 H 0.0 **** 0.06
3266 C 2.4555023014323183 38.47317209518542 74.2976831238353 C 0.0 **** -0.24
3267 H 3.037994181116062 39.38864950385204 74.1947947138232 H 0.0 **** 0.06
3268 H 1.4621337098848244 38.71624135490134 74.67561157616404 H 0.0 **** 0.06
3269 H 2.9558798182242185 37.801831679916916 74.99641136759146 H 0.0 **** 0.06
3270 H 2.3668097093691927 37.987164935470275 73.32654342095461 H 0.0 **** 0.06
3271 C 75.15175583087738 6.805390167462434 98.21438405143704 C 0.0 **** -0.24
3272 H 74.47086258740894 5.9718448974224145 98.04253710674419 H 0.0 **** 0.06
3273 H 74.73229516212477 7.713033443607458 97.78072159869532 H 0.0 **** 0.06
3274 H 76.11389993486948 6.590210696951516 97.74885718883064 H 0.0 **** 0.06
3275 H 75.29042676539295 6.945170333108507 99.28686744608837 H 0.0 **** 0.06
3276 C 36.829561542528594 17.707613255355653 84.31049435700342 C 0.0 **** -0.24
3277 H 36.18769156754536 17.807864992950954 83.4351651393761 H 0.0 **** 0.06
3278 H 37.47561112019126 18.581554294042917 84.3900410591676 H 0.0 **** 0.06
3279 H 37.4410475076306 16.809839263544262 84.21101786394547 H 0.0 **** 0.06
3280 H 36.212236592561524 17.628913909993315 85.20553907186567 H 0.0 **** 0.06
3281 C 76.4099818847984 33.00285277773277 93.17744480240373 C 0.0 **** -0.24
3282 H 77.23692255989738 32.299914944394224 93.07846394325068 H 0.0 **** 0.06
3283 H 76.29152293811404 33.27960672397447 94.22448461765688 H 0.0 **** 0.06
3284 H 75.49216800199686 32.53767396723009 92.81698524828252 H 0.0 **** 0.06
3285 H 76.6199959464144 33.89509806729625 92.58627373629034 H 0.0 **** 0.06
3286 C 116.15974215214129 43.506810094156734 43.159208060589776 C 0.0 **** -0.24
3287 H 115.77852731907336 43.72810185726428 44.15586140425245 H 0.0 **** 0.06
3288 H 116.85097649562994 42.66559978676281 43.21329153537795 H 0.0 **** 0.06
3289 H 116.68048955151397 44.380873037311545 42.76809065321328 H 0.0 **** 0.06
3290 H 115.3298292441354 43.2540428033012 42.500200544390566 H 0.0 **** 0.06
3291 C 36.570242523665286 50.524082569612176 101.57921810485837 C 0.0 **** -0.24
3292 H 36.061711139787235 49.75710751040447 102.16535624652418 H 0.0 **** 0.06
3293 H 36.49473310871491 51.48233885626888 102.09437244173542 H 0.0 **** 0.06
3294 H 36.10220084117543 50.60034723630827 100.59789482534242 H 0.0 **** 0.06
3295 H 37.61966067857435 50.25597311905409 101.46181493772664 H 0.0 **** 0.06
3296 C 69.69541745464704 104.62666323369547 88.78642598619682 C 0.0 **** -0.24
3297 H 70.68766494240828 104.94205112605442 88.46581869004854 H 0.0 **** 0.06
3298 H 69.03405767819146 105.49193444305087 88.82419708701417 H 0.0 **** 0.06
3299 H 69.75936204130795 104.17451041378473 89.77625558496887 H 0.0 **** 0.06
3300 H 69.30010904570696 103.89727889963717 88.07948153377758 H 0.0 **** 0.06
3301 C 66.95453675370031 72.58168149056795 9.78227369462681 C 0.0 **** -0.24
3302 H 67.33884196501529 71.56235871101222 9.805322262720921 H 0.0 **** 0.06
3303 H 66.5940936986591 72.85637287098052 10.773359529002903 H 0.0 **** 0.06
3304 H 66.1348864736726 72.64461635833578 9.066029766240746 H 0.0 **** 0.06
3305 H 67.75149258557936 73.26287992554342 9.482542398489784 H 0.0 **** 0.06
3306 C 78.50612563104586 35.87575190752273 97.73329997599194 C 0.0 **** -0.24
3307 H 77.66299735799981 35.71378395692642 98.40553122565905 H 0.0 **** 0.06
3308 H 78.30943080231786 35.3863669305843 96.77987973958216 H 0.0 **** 0.06
3309 H 79.40943382513937 35.45881066702907 98.17758363177427 H 0.0 **** 0.06
3310 H 78.64177079396427 36.94516119776188 97.57193744858125 H 0.0 **** 0.06
3311 C 116.0773117980878 29.96790899821285 101.80662769316302 C 0.0 **** -0.24
3312 H 115.12350706369021 29.442905705494745 101.74885390234809 H 0.0 **** 0.06
3313 H 116.68375286442637 29.5326137258497 102.6014918434561 H 0.0 **** 0.06
3314 H 115.89788145767781 31.02182247094138 102.02135519979814 H 0.0 **** 0.06
3315 H 116.60081050985417 29.874488780178964 100.85586042644044 H 0.0 **** 0.06
3316 C 97.0667753613636 118.8350040269844 90.49710641635833 C 0.0 **** -0.24
3317 H 96.8093894500237 119.3165500109884 89.55422327693638 H 0.0 **** 0.06
3318 H 96.20392162646078 118.28504107904477 90.87145096605673 H 0.0 **** 0.06
3319 H 97.35918179264581 119.59263304098829 91.224013186252 H 0.0 **** 0.06
3320 H 97.89607589270966 118.14498906208007 90.33725412753023 H 0.0 **** 0.06
3321 C 4.753795741556587 107.05196862953534 78.48297986243301 C 0.0 **** -0.24
3322 H 5.355512242748205 107.8665865057792 78.8855399876812 H 0.0 **** 0.06
3323 H 4.697261216556825 107.14242335750961 77.39807963108493 H 0.0 **** 0.06
3324 H 3.7498023667173754 107.09927794184935 78.90462406688115 H 0.0 **** 0.06
3325 H 5.212878082397708 106.09761671606029 78.74469849107302 H 0.0 **** 0.06
3326 C 22.25909589741616 37.406031659530356 13.44080361688522 C 0.0 **** -0.24
3327 H 22.32533994083758 38.150585418702846 14.234433984270368 H 0.0 **** 0.06
3328 H 22.064772070335266 37.90438283139096 12.490205302510702 H 0.0 **** 0.06
3329 H 21.44652525318429 36.71280647933807 13.659608409340251 H 0.0 **** 0.06
3330 H 23.19913267111326 36.857057327972825 13.378611995732967 H 0.0 **** 0.06
3331 C 54.03809291741649 45.43121841198311 41.895465808643266 C 0.0 **** -0.24
3332 H 54.459428577645866 45.75817997581575 40.94515319001741 H 0.0 **** 0.06
3333 H 53.852998022864426 46.29847225990497 42.52905821363426 H 0.0 **** 0.06
3334 H 54.739827904980956 44.761023914087815 42.392353190301264 H 0.0 **** 0.06
3335 H 53.09942972074373 44.90599817665279 41.71500004928521 H 0.0 **** 0.06
3336 C 118.68783145731021 105.59977977680288 63.368549022892665 C 0.0 **** -0.24
3337 H 118.48539276009694 104.85776519632685 62.59611478640869 H 0.0 **** 0.06
3338 H 119.75708987988071 105.62445387127934 63.576217666129736 H 0.0 **** 0.06
3339 H 118.14624915804256 105.33387463154229 64.2766067302131 H 0.0 **** 0.06
3340 H 118.3610757590111 106.58082389786694 63.02389724526964 H 0.0 **** 0.06
3341 C 72.73463219011074 41.21613590758693 71.06319041878024 C 0.0 **** -0.24
3342 H 73.14110243397562 40.75326118656801 71.96281571732902 H 0.0 **** 0.06
3343 H 71.87116813569975 41.82713175845919 71.32814825865286 H 0.0 **** 0.06
3344 H 72.4286941931959 40.43890675628239 70.36221499391286 H 0.0 **** 0.06
3345 H 73.49604868949234 41.84300078030947 70.60121753287567 H 0.0 **** 0.06
3346 C 60.5676867601224 35.70555743314969 69.05789795559286 C 0.0 **** -0.24
3347 H 59.95341347933066 35.61416627356101 68.16241112065751 H 0.0 **** 0.06
3348 H 59.962336964797316 36.09871150437988 69.87494583335473 H 0.0 **** 0.06
3349 H 61.397415504813864 36.38428882531139 68.86030590578775 H 0.0 **** 0.06
3350 H 60.956930919310196 34.72560513480403 69.33241778190194 H 0.0 **** 0.06
3351 C 27.509297662719717 5.31492328789767 1.119672766091 C 0.0 **** -0.24
3352 H 26.97438511776616 5.5895521737331535 0.2104306308125814 H 0.0 **** 0.06
3353 H 27.292677599810148 4.275624053558488 1.3674520553343257 H 0.0 **** 0.06
3354 H 27.188968268099757 5.958877635594263 1.9383335941805058 H 0.0 **** 0.06
3355 H 28.58073814213415 5.434862517281147 0.9613706772912707 H 0.0 **** 0.06
3356 C 106.92369720116773 104.42891128234879 123.53713230417964 C 0.0 **** -0.24
3357 H 106.88917447017104 103.45484190729763 124.02432703011289 H 0.0 **** 0.06
3358 H 107.40891693707414 104.33247837137685 122.56592624880346 H 0.0 **** 0.06
3359 H 107.4862193014433 105.12584618470459 124.15765731358005 H 0.0 **** 0.06
3360 H 105.90887539911353 104.80296614530681 123.40017829757124 H 0.0 **** 0.06
3361 C 23.22024745173971 43.77393183868867 60.20714861883647 C 0.0 **** -0.24
3362 H 22.901275325502695 43.883427050315504 59.17048266260778 H 0.0 **** 0.06
3363 H 24.16987343098748 44.288892648638466 60.35082723529058 H 0.0 **** 0.06
3364 H 23.34040990544071 42.716572310228514 60.4399950109451 H 0.0 **** 0.06
3365 H 22.46709279694312 44.207625254552056 60.865073993913 H 0.0 **** 0.06
3366 C 6.177215528201913 84.04993847655052 121.66575399289638 C 0.0 **** -0.24
3367 H 6.238987209855054 85.0587112571944 122.0737680040802 H 0.0 **** 0.06
3368 H 5.588573941300325 83.42259892582999 122.33610162507966 H 0.0 **** 0.06
3369 H 7.180131516046345 83.63617241589921 121.5673527651661 H 0.0 **** 0.06
3370 H 5.699742606625705 84.0832511760708 120.68572916806022 H 0.0 **** 0.06
3371 C 116.58848217417389 78.21713256492609 87.94933525091147 C 0.0 **** -0.24
3372 H 117.65684577036095 78.33750212060121 88.12787400137744 H 0.0 **** 0.06
3373 H 116.06961686698943 79.13771714084027 88.21737920695415 H 0.0 **** 0.06
3374 H 116.20814026952792 77.39596014431265 88.55666183820621 H 0.0 **** 0.06
3375 H 116.41811479337073 77.99795317837618 86.89501267737339 H 0.0 **** 0.06
3376 C 93.79697716856103 22.173807864834714 34.59380772362681 C 0.0 **** -0.24
3377 H 94.27555269243065 22.715093943909125 35.41000289687611 H 0.0 **** 0.06
3378 H 92.7184170414374 22.16626309515084 34.745961427988846 H 0.0 **** 0.06
3379 H 94.16855479080287 21.149106875860227 34.57066277729754 H 0.0 **** 0.06
3380 H 94.02749296844947 22.66548042911876 33.64839178651579 H 0.0 **** 0.06
3381 C 118.81185336392679 67.48407171095631 51.80071424392517 C 0.0 **** -0.24
3382 H 118.91388384836966 66.42904301882803 51.54680690116015 H 0.0 **** 0.06
3383 H 119.49678680307677 67.73003835635762 52.61273662613823 H 0.0 **** 0.06
3384 H 117.78729133693949 67.68476047591898 52.116893749632226 H 0.0 **** 0.06
3385 H 119.048906685582 68.09235424961894 50.92858655055625 H 0.0 **** 0.06
3386 C 71.78719116431014 52.17030630040634 39.81783604891522 C 0.0 **** -0.24
3387 H 72.16679558777838 53.05870374443781 39.312247068919596 H 0.0 **** 0.06
3388 H 71.0093817286211 52.458972212759136 40.52497054347139 H 0.0 **** 0.06
3389 H 72.60182105094887 51.6810517095488 40.35351589637473 H 0.0 **** 0.06
3390 H 71.37291089108305 51.48309248903257 39.08082744345729 H 0.0 **** 0.06
3391 C 39.36733401044887 107.74915552296511 11.701402305798396 C 0.0 **** -0.24
3392 H 39.117989556503744 108.03617289385802 12.723346102215984 H 0.0 **** 0.06
3393 H 40.408930263640116 107.99830197169966 11.497929911307935 H 0.0 **** 0.06
3394 H 38.72170872399539 108.28603834013857 11.00662930679566 H 0.0 **** 0.06
3395 H 39.21887004761936 106.6756281269446 11.579799869697283 H 0.0 **** 0.06
3396 C 107.80236711471736 77.4932416169443 60.09762351804733 C 0.0 **** -0.24
3397 H 106.93575824727321 78.03457270992764 60.47504415817815 H 0.0 **** 0.06
3398 H 107.48157426279931 76.7726682561744 59.345321262002074 H 0.0 **** 0.06
3399 H 108.2900987832092 76.96830556057272 60.91947186461073 H 0.0 **** 0.06
3400 H 108.50336762966162 78.1977856947574 59.65034663121196 H 0.0 **** 0.06
3401 C 105.73082800522482 12.57781826803597 72.75120980950524 C 0.0 **** -0.24
3402 H 105.77084932532804 13.114560949909503 73.69949370117223 H 0.0 **** 0.06
3403 H 105.91389802963309 11.518005563054828 72.92601272467006 H 0.0 **** 0.06
3404 H 106.49201827792344 12.973199990214937 72.0788591919156 H 0.0 **** 0.06
3405 H 104.74592249763376 12.707697634961733 72.30242566360351 H 0.0 **** 0.06
3406 C 20.929890965323153 80.26828580712771 111.50778405813743 C 0.0 **** -0.24
3407 H 21.917643861904935 80.19618418011427 111.9623280533072 H 0.0 **** 0.06
3408 H 20.170554264629814 80.27393255018936 112.2903705696445 H 0.0 **** 0.06
3409 H 20.769319816444295 79.41473175406392 110.8498911783973 H 0.0 **** 0.06
3410 H 20.863396074004868 81.1904550238273 110.93013096706716 H 0.0 **** 0.06
3411 C 38.21127674112468 73.75249279440685 22.57968695410949 C 0.0 **** -0.24
3412 H 38.99729059112474 73.02022115072968 22.393479523366295 H 0.0 **** 0.06
3413 H 37.82407682976665 73.62015966649903 23.59076111805308 H 0.0 **** 0.06
3414 H 37.40407481004202 73.60990806262316 21.860145831945033 H 0.0 **** 0.06
3415 H 38.61831071330303 74.75790721950138 22.474487811915424 H 0.0 **** 0.06
3416 C 7.458642262827155 20.529119246251582 54.01677469634387 C 0.0 **** -0.24
3417 H 6.975394426211267 21.481702527775553 54.23078930911588 H 0.0 **** 0.06
3418 H 8.540685775898964 20.663490295302182 54.01044954295699 H 0.0 **** 0.06
3419 H 7.1321052681531825 20.16666633447369 53.04190691093076 H 0.0 **** 0.06
3420 H 7.187018078475489 19.803048635202288 54.78358531385037 H 0.0 **** 0.06
3421 C 60.12065065796219 123.76484571731852 122.93755269148949 C 0.0 **** -0.24
3422 H 59.21514428785241 124.288549230455 123.24381817419709 H 0.0 **** 0.06
3423 H 60.107080401678104 122.75144003318476 123.34002695318094 H 0.0 **** 0.06
3424 H 60.99303128433499 124.29552251216835 123.31680432715072 H 0.0 **** 0.06
3425 H 60.16535118903778 123.72273824568835 121.84870394258047 H 0.0 **** 0.06
3426 C 112.79174523707727 120.5883409214591 9.743011712932457 C 0.0 **** -0.24
3427 H 112.50934756877967 120.58427532945126 8.690702023571475 H 0.0 **** 0.06
3428 H 113.13362364933235 119.59388105932383 10.031680203851693 H 0.0 **** 0.06
3429 H 111.93099983867614 120.86699621449232 10.349505077060542 H 0.0 **** 0.06
3430 H 113.59522199644991 121.30849677123727 9.900318424198247 H 0.0 **** 0.06
3431 C 56.10382656573934 68.71564919923901 28.555376841349712 C 0.0 **** -0.24
3432 H 55.609365871355095 69.31332707429968 29.32096450587995 H 0.0 **** 0.06
3433 H 56.97055633815772 68.2161036711139 28.98883330213875 H 0.0 **** 0.06
3434 H 56.427685953680054 69.36442974180048 27.741388741766514 H 0.0 **** 0.06
3435 H 55.40851982233865 67.96930623379421 28.170324309843764 H 0.0 **** 0.06
3436 C 1.9408771267644482 45.04886100544343 106.70684594259967 C 0.0 **** -0.24
3437 H 2.389569498237506 45.562206547432595 107.55823087509867 H 0.0 **** 0.06
3438 H 1.624716943758628 44.05073269591844 107.01059475947875 H 0.0 **** 0.06
3439 H 2.672692538706144 44.97033213191719 105.90349043461109 H 0.0 **** 0.06
3440 H 1.0768506017361688 45.6137436249262 106.35691952710522 H 0.0 **** 0.06
3441 C 91.66609636151219 48.77384192889906 108.03663504016097 C 0.0 **** -0.24
3442 H 92.09909328788098 47.77491112232474 107.99507114363715 H 0.0 **** 0.06
3443 H 92.41788279817959 49.48132556306908 108.38583805317157 H 0.0 **** 0.06
3444 H 90.81981515888504 48.77402277716021 108.72442851357252 H 0.0 **** 0.06
3445 H 91.32569731316212 49.06483617850543 107.04328288785476 H 0.0 **** 0.06
3446 C 76.8753209856565 120.77638479158213 120.32810623465184 C 0.0 **** -0.24
3447 H 76.78259021461533 121.86262756918745 120.31524658252329 H 0.0 **** 0.06
3448 H 77.5934840674269 120.4640547923434 119.57001556616223 H 0.0 **** 0.06
3449 H 75.90499988062975 120.32648539346303 120.11782738571054 H 0.0 **** 0.06
3450 H 77.2195973443757 120.4533561618706 121.31014490794325 H 0.0 **** 0.06
3451 C 42.00276839850494 123.71218190771788 111.74235217399585 C 0.0 **** -0.24
3452 H 42.97970761115138 124.06222152093487 111.4084812896594 H 0.0 **** 0.06
3453 H 41.22169776785438 124.26340614709537 111.21860775002506 H 0.0 **** 0.06
3454 H 41.90676707975955 123.87784865738016 112.81598760982695 H 0.0 **** 0.06
3455 H 41.90519967768991 122.64860931680504 111.52866477924914 H 0.0 **** 0.06
3456 C 116.18803837711431 59.90073203535931 0.33722018264116294 C 0.0 **** -0.24
3457 H 116.10467730053224 58.84805428256689 0.06687930515974827 H 0.0 **** 0.06
3458 H 115.34982236140348 60.17872622253046 0.9768848613557743 H 0.0 **** 0.06
3459 H 116.17324776018563 60.50989134954352 -0.5665435440045794 H 0.0 **** 0.06
3460 H 117.12344256969618 60.06524282207019 0.8718713713511708 H 0.0 **** 0.06
3461 C 113.62726288943395 63.839081326371314 100.63944654634915 C 0.0 **** -0.24
3462 H 113.69260950636959 62.93949828176194 101.25195932513134 H 0.0 **** 0.06
3463 H 112.63239149546683 64.27408729227156 100.73776977057116 H 0.0 **** 0.06
3464 H 113.80998936813785 63.58215750803686 99.59640203542344 H 0.0 **** 0.06
3465 H 114.37420075419686 64.55985887069309 100.97233132024897 H 0.0 **** 0.06
3466 C 114.0722690486686 36.178212611920564 103.70545358472107 C 0.0 **** -0.24
3467 H 114.59988892205388 37.13167873900179 103.69942951852457 H 0.0 **** 0.06
3468 H 114.19174184138654 35.69214965173254 102.73664100602959 H 0.0 **** 0.06
3469 H 113.01314716696749 36.349752198256574 103.89829479013935 H 0.0 **** 0.06
3470 H 114.48423627890634 35.53923912022424 104.48645139370528 H 0.0 **** 0.06
3471 C 77.23797412977586 48.390332904352974 117.05525931612027 C 0.0 **** -0.24
3472 H 77.96621767037497 48.37785022567459 116.24493149171967 H 0.0 **** 0.06
3473 H 77.18307349472383 49.39374217030302 117.47930124286043 H 0.0 **** 0.06
3474 H 77.54160867130372 47.6844448091871 117.82826563203263 H 0.0 **** 0.06
3475 H 76.25881673953508 48.10635371897935 116.66818387845703 H 0.0 **** 0.06
3476 C 90.08678421816879 82.92434707441782 46.92425181741608 C 0.0 **** -0.24
3477 H 89.58874513812478 82.84600760824424 47.891204126198886 H 0.0 **** 0.06
3478 H 89.33804289296776 83.03425917577243 46.13928843884845 H 0.0 **** 0.06
3479 H 90.67251567009947 82.02262738815989 46.74436573097839 H 0.0 **** 0.06
3480 H 90.74509047574682 83.792285724605 46.924294083708304 H 0.0 **** 0.06
3481 C 44.570266594544734 105.65632287655701 32.95790570191323 C 0.0 **** -0.24
3482 H 43.91497431042418 105.14928574838795 33.66594176342298 H 0.0 **** 0.06
3483 H 45.16112803466676 104.91703002984605 32.41663074240516 H 0.0 **** 0.06
3484 H 45.23530138280756 106.3313948178147 33.49670373643964 H 0.0 **** 0.06
3485 H 43.96741662839004 106.22837202381331 32.251772242627794 H 0.0 **** 0.06
3486 C 97.11041222549797 20.055008768983924 65.38607099675079 C 0.0 **** -0.24
3487 H 96.61898491471318 21.01768724661713 65.24879026230195 H 0.0 **** 0.06
3488 H 97.28765687843017 19.595826422896977 64.41374513030831 H 0.0 **** 0.06
3489 H 96.4732814246351 19.404368522724496 65.98502117383725 H 0.0 **** 0.06
3490 H 98.06138326086007 20.20330243230947 65.8974766811794 H 0.0 **** 0.06
3491 C 83.60587728438838 73.34242796902595 104.91387715492816 C 0.0 **** -0.24
3492 H 82.7767502230102 73.19955288901713 105.60590364501931 H 0.0 **** 0.06
3493 H 84.2361906550434 74.15919688388396 105.26673880668187 H 0.0 **** 0.06
3494 H 83.21644378100325 73.58452464581848 103.92533913388978 H 0.0 **** 0.06
3495 H 84.19531398195744 72.42679657166366 104.85938617009583 H 0.0 **** 0.06
3496 C 122.95517898126485 7.958629615842426 47.39364243553459 C 0.0 **** -0.24
3497 H 123.04220773942126 6.924713069325946 47.05882859631402 H 0.0 **** 0.06
3498 H 123.52980498988927 8.09228472147484 48.31072804972825 H 0.0 **** 0.06
3499 H 121.90703716468965 8.19191662721019 47.58330439175899 H 0.0 **** 0.06
3500 H 123.34187457306399 8.624728741750943 46.62214506135804 H 0.0 **** 0.06
3501 C 90.04561474115104 19.635945975496895 24.09933879407896 C 0.0 **** -0.24
3502 H 89.62870099957146 19.71820957727786 23.095858694771607 H 0.0 **** 0.06
3503 H 89.23526522805196 19.617156520322197 24.8288135272806 H 0.0 **** 0.06
3504 H 90.69146936252764 20.4923537818768 24.295581593607835 H 0.0 **** 0.06
3505 H 90.62604118384374 18.717063854256708 24.177290425021113 H 0.0 **** 0.06
3506 C 34.352741118142546 38.798566234779344 59.24221842026668 C 0.0 **** -0.24
3507 H 33.53137527181451 39.43974878522022 58.92174250880569 H 0.0 **** 0.06
3508 H 33.97037987136393 38.022265878018516 59.904163494830115 H 0.0 **** 0.06
3509 H 35.0939970199241 39.39690306700112 59.77316333106444 H 0.0 **** 0.06
3510 H 34.815024351500256 38.33756710179449 58.36999674012121 H 0.0 **** 0.06
3511 C 61.70955703915024 100.18486208257667 97.05442358961383 C 0.0 **** -0.24
3512 H 61.571985255576976 99.777131683272 98.05627321616379 H 0.0 **** 0.06
3513 H 60.75638849054434 100.55552492221511 96.67921376921879 H 0.0 **** 0.06
3514 H 62.082533917326884 99.40253677487468 96.393205711895 H 0.0 **** 0.06
3515 H 62.42955260868064 101.00228323125337 97.09202340751028 H 0.0 **** 0.06
3516 C 98.52625248245384 81.3668114331881 95.81097603456038 C 0.0 **** -0.24
3517 H 98.68172003803666 80.31076778756375 96.02997220993234 H 0.0 **** 0.06
3518 H 97.93401562143937 81.81893474400988 96.60597331122614 H 0.0 **** 0.06
3519 H 97.99836048323434 81.46726416556714 94.86191066960447 H 0.0 **** 0.06
3520 H 99.49119962912177 81.86948531756639 95.74551095620319 H 0.0 **** 0.06
3521 C 45.94760357748871 102.72767404581981 101.38217100266843 C 0.0 **** -0.24
3522 H 46.35825045578807 102.10888310528007 100.5837759458745 H 0.0 **** 0.06
3523 H 46.52378902017986 102.57253940357936 102.29458884014976 H 0.0 **** 0.06
3524 H 44.90700906910766 102.45144481234013 101.55724035232001 H 0.0 **** 0.06
3525 H 46.000743474527184 103.77729760961626 101.091552213753 H 0.0 **** 0.06
3526 C 40.57561331182913 116.60214307941897 116.16669045630687 C 0.0 **** -0.24
3527 H 40.72686631120868 116.92529975094386 115.13610903168356 H 0.0 **** 0.06
3528 H 40.89588224628226 115.56516617462714 116.27240926960846 H 0.0 **** 0.06
3529 H 39.51897623076162 116.68415735394389 116.4221008378475 H 0.0 **** 0.06
3530 H 41.161902980195 117.232797423522 116.83500492586285 H 0.0 **** 0.06
3531 C 9.214704309317028 67.17210192155736 40.10393732570304 C 0.0 **** -0.24
3532 H 10.14020520044943 66.61129894203111 40.229204052621725 H 0.0 **** 0.06
3533 H 8.827551634623035 67.0129082153546 39.096651878891706 H 0.0 **** 0.06
3534 H 9.409761819650498 68.2339278172069 40.25424049468715 H 0.0 **** 0.06
3535 H 8.480990885902116 66.82965707983007 40.83330199550067 H 0.0 **** 0.06
3536 C 122.08389711877103 107.8514263673181 66.37299776334135 C 0.0 **** -0.24
3537 H 121.92639579113528 106.7745185007876 66.43799408028036 H 0.0 **** 0.06
3538 H 121.70256771385432 108.32907431625705 67.27618328874689 H 0.0 **** 0.06
3539 H 121.55751052761048 108.24313894466181 65.50304944353542 H 0.0 **** 0.06
3540 H 123.14995633882974 108.05594905257125 66.27583347537359 H 0.0 **** 0.06
3541 C 2.371966001808161 113.5990485537622 90.9196736904297 C 0.0 **** -0.24
3542 H 2.7183635841451945 112.79234315259072 90.27394015550533 H 0.0 **** 0.06
3543 H 1.3880839758281525 113.93149579270803 90.58984243339899 H 0.0 **** 0.06
3544 H 3.0739857441880645 114.43141120806422 90.86863048520672 H 0.0 **** 0.06
3545 H 2.309314324325058 113.23950220711619 91.94689270979654 H 0.0 **** 0.06
3546 C 63.359999477314545 112.80946619291831 48.79249178968844 C 0.0 **** -0.24
3547 H 62.991879715382765 113.05597698554482 49.78844609714582 H 0.0 **** 0.06
3548 H 62.85647627990795 111.91255642650802 48.43062163040696 H 0.0 **** 0.06
3549 H 64.4349586643612 112.63018926569188 48.83783849946775 H 0.0 **** 0.06
3550 H 63.15810942057175 113.63848322847369 48.11561679074789 H 0.0 **** 0.06
3551 C 25.63672870979383 119.0703961086015 99.95517170259478 C 0.0 **** -0.24
3552 H 25.372847348137668 119.28383311919569 98.91909979146442 H 0.0 **** 0.06
3553 H 24.73808755229527 119.10601461321411 100.57236064239845 H 0.0 **** 0.06
3554 H 26.35052165463179 119.81327083507259 100.308404450688 H 0.0 **** 0.06
3555 H 26.083185033325208 118.07782558611987 100.01871885483598 H 0.0 **** 0.06
3556 C 50.35317747853365 54.49304485856857 100.09247179009301 C 0.0 **** -0.24
3557 H 51.219081910399495 54.926905172954264 99.5924883458515 H 0.0 **** 0.06
3558 H 50.450222493729314 53.40665905400998 100.10896280001307 H 0.0 **** 0.06
3559 H 49.44705983740414 54.768946554184666 99.55451946939579 H 0.0 **** 0.06
3560 H 50.29834292227139 54.86885072287659 101.11450156817284 H 0.0 **** 0.06
3561 C 27.71670287309405 50.96476631437815 18.52569432027594 C 0.0 **** -0.24
3562 H 28.527314203941614 50.50261861144395 19.089887128942202 H 0.0 **** 0.06
3563 H 28.07167087600928 51.88962466180692 18.070783920060343 H 0.0 **** 0.06
3564 H 26.887111105631163 51.18436396742186 19.197315527510238 H 0.0 **** 0.06
3565 H 27.3810572564455 50.281890834247065 17.745539989561102 H 0.0 **** 0.06
3566 C 119.92874094382238 6.294275483854761 37.479232382664264 C 0.0 **** -0.24
3567 H 120.8582614257801 6.013462857169287 36.98309863235832 H 0.0 **** 0.06
3568 H 119.9132849928962 5.873344186483166 38.485675517692954 H 0.0 **** 0.06
3569 H 119.0827297663436 5.9085155735188835 36.910288542073694 H 0.0 **** 0.06
3570 H 119.86274464912951 7.380449479071103 37.537885768764994 H 0.0 **** 0.06
3571 C 64.21566967886766 83.20988666170784 35.295759315700174 C 0.0 **** -0.24
3572 H 65.30125577239774 83.19766429493048 35.19974816217173 H 0.0 **** 0.06
3573 H 63.944070933339674 83.25488463289122 36.35050621457945 H 0.0 **** 0.06
3574 H 63.80143292148827 82.30441189088035 34.851421495178904 H 0.0 **** 0.06
3575 H 63.8154970721297 84.08347793834679 34.77962177704734 H 0.0 **** 0.06
3576 C 67.6884463067925 38.743121552430466 48.654445506726574 C 0.0 **** -0.24
3577 H 66.83466542268472 39.12201797229642 49.21547078824122 H 0.0 **** 0.06
3578 H 68.47102137187589 38.434846153726824 49.34788278897008 H 0.0 **** 0.06
3579 H 68.07003516642585 39.52657538020898 47.999785485827374 H 0.0 **** 0.06
3580 H 67.3769067733343 37.88838614135588 48.05315085246053 H 0.0 **** 0.06
3581 C 7.4082944224946345 92.2076454506918 112.51377174108683 C 0.0 **** -0.24
3582 H 7.3975225332414425 93.20833749002283 112.94679848933538 H 0.0 **** 0.06
3583 H 8.252415766618185 91.64687720000802 112.91731470797762 H 0.0 **** 0.06
3584 H 7.5040376393418455 92.28167503452977 111.43107718657276 H 0.0 **** 0.06
3585 H 6.479179704539774 91.69475355988254 112.76348454943403 H 0.0 **** 0.06
3586 C 19.00798525888202 38.66645401086288 51.20503297067452 C 0.0 **** -0.24
3587 H 18.94162117571246 39.20120743103581 50.25777626235518 H 0.0 **** 0.06
3588 H 19.378710915606817 37.656689554719094 51.02690106832702 H 0.0 **** 0.06
3589 H 18.019825357169605 38.61632804822136 51.66321868270546 H 0.0 **** 0.06
3590 H 19.691035627222004 39.19306739840988 51.871724994865616 H 0.0 **** 0.06
3591 C 81.78949869007582 108.28448290031795 80.29949983542667 C 0.0 **** -0.24
3592 H 82.08415382812575 109.26869992972277 80.6655940476893 H 0.0 **** 0.06
3593 H 80.70662494057716 108.24987045053476 80.18329275322924 H 0.0 **** 0.06
3594 H 82.1037033181971 107.52331878446202 81.01421613650257 H 0.0 **** 0.06
3595 H 82.26517126967532 108.0977662638127 79.33670691818969 H 0.0 **** 0.06
3596 C 52.015190079233435 87.22425288162435 15.381886173665237 C 0.0 **** -0.24
3597 H 53.07625880131479 87.40231133088811 15.205925706917014 H 0.0 **** 0.06
3598 H 51.4982722429412 88.17858683557435 15.482386718579448 H 0.0 **** 0.06
3599 H 51.89097115242396 86.64413464141057 16.29644082343748 H 0.0 **** 0.06
3600 H 51.59555799880627 86.6702974785689 14.54175042736756 H 0.0 **** 0.06
3601 C 35.49785256994056 32.3318365967055 94.11401404055215 C 0.0 **** -0.24
3602 H 34.70392673253406 31.733945163562908 93.66682248399428 H 0.0 **** 0.06
3603 H 36.26213631482108 31.67243440988443 94.52616311335407 H 0.0 **** 0.06
3604 H 35.08259524257295 32.94995052572213 94.91035897853675 H 0.0 **** 0.06
3605 H 35.94278877682984 32.97268368273134 93.35224403820956 H 0.0 **** 0.06
3606 C 14.633909616135384 61.02162102256126 57.625476628681554 C 0.0 **** -0.24
3607 H 13.813041399022438 61.605339399040616 57.20816982784258 H 0.0 **** 0.06
3608 H 15.171494438810385 61.62392040988104 58.35940226333379 H 0.0 **** 0.06
3609 H 15.315434794204634 60.73107562866865 56.82567694249211 H 0.0 **** 0.06
3610 H 14.237095219478078 60.12939303368553 58.10799622826154 H 0.0 **** 0.06
3611 C 112.39055189801084 70.47757640858637 40.59140656106638 C 0.0 **** -0.24
3612 H 112.82888483023419 71.07642634099437 39.79400037459851 H 0.0 **** 0.06
3613 H 112.18573000727278 69.47342192034046 40.22117768131284 H 0.0 **** 0.06
3614 H 111.46053314092555 70.93954969992518 40.92314970416612 H 0.0 **** 0.06
3615 H 113.08658351312866 70.4218483562079 41.428241113935826 H 0.0 **** 0.06
3616 C 72.0282492162188 104.05258143921701 1.5644152798645905 C 0.0 **** -0.24
3617 H 71.69427256440497 105.07496943349362 1.7433038783754569 H 0.0 **** 0.06
3618 H 73.0747472629659 103.95681915514909 1.8530692351351377 H 0.0 **** 0.06
3619 H 71.91979530394991 103.81625038958549 0.5058222995372148 H 0.0 **** 0.06
3620 H 71.42310848056582 103.36482768682149 2.1542857080001454 H 0.0 **** 0.06
3621 C 71.48859531182235 59.25438496941234 80.89174106613845 C 0.0 **** -0.24
3622 H 70.40518062729859 59.17763457339058 80.7903763565383 H 0.0 **** 0.06
3623 H 71.90213991176158 59.728487052678275 80.00131599076033 H 0.0 **** 0.06
3624 H 71.91494243884138 58.257989526338946 81.00552122358943 H 0.0 **** 0.06
3625 H 71.72934501969652 59.85486374515989 81.76925035356155 H 0.0 **** 0.06
3626 C 107.08923723635189 33.65983024279578 117.33852692916307 C 0.0 **** -0.24
3627 H 107.47846609859477 32.65220115941814 117.48583698433632 H 0.0 **** 0.06
3628 H 107.12077779065464 33.91034015013014 116.27783436049103 H 0.0 **** 0.06
3629 H 107.69947321436075 34.37009361797482 117.89796842662841 H 0.0 **** 0.06
3630 H 106.05975089198773 33.70658976927581 117.69329461238067 H 0.0 **** 0.06
3631 C 90.06003965043428 22.848614903927768 12.524690371311635 C 0.0 **** -0.24
3632 H 89.72513073098449 21.996080291642073 13.11631229914525 H 0.0 **** 0.06
3633 H 89.89765754114879 22.642352792823573 11.466720756893722 H 0.0 **** 0.06
3634 H 91.12291912839584 23.018761620636013 12.702710420486937 H 0.0 **** 0.06
3635 H 89.49651682989835 23.73571720883959 12.814174826050305 H 0.0 **** 0.06
3636 C 115.32264341006479 47.03713459366139 12.36725675339487 C 0.0 **** -0.24
3637 H 115.49669275776765 46.8764605067268 13.430863508766475 H 0.0 **** 0.06
3638 H 114.62422340220937 46.286986922341214 11.996467507008187 H 0.0 **** 0.06
3639 H 116.26600235638992 46.9540736035498 11.828291601633833 H 0.0 **** 0.06
3640 H 114.90304832548074 48.031628589970495 12.215209496205599 H 0.0 **** 0.06
3641 C 30.225563367535344 114.17960126504144 49.28538985765738 C 0.0 **** -0.24
3642 H 31.215092166937076 113.89778378147031 48.92579236427204 H 0.0 **** 0.06
3643 H 29.918453848188577 115.11127507674851 48.80884455043321 H 0.0 **** 0.06
3644 H 30.257222579651746 114.31650373826591 50.366371875540864 H 0.0 **** 0.06
3645 H 29.51217268595594 113.39336049830948 49.0394287384442 H 0.0 **** 0.06
3646 C 9.854664305791232 68.4050592328151 64.35324204704132 C 0.0 **** -0.24
3647 H 9.636174240672375 68.04803253367695 63.346745776791295 H 0.0 **** 0.06
3648 H 9.158135871422843 67.95013066033479 65.05785603172605 H 0.0 **** 0.06
3649 H 9.748381344563626 69.48931732534759 64.38425842547076 H 0.0 **** 0.06
3650 H 10.874886835448052 68.13228412680036 64.6219601235744 H 0.0 **** 0.06
3651 C 122.14351790477272 68.91984624981393 94.32375156983801 C 0.0 **** -0.24
3652 H 123.23011654123384 68.85392864393 94.28875326841612 H 0.0 **** 0.06
3653 H 121.84937379765907 69.92165892861249 94.64049821194394 H 0.0 **** 0.06
3654 H 121.7574231673928 68.18641866884485 95.03218617174772 H 0.0 **** 0.06
3655 H 121.7352956891964 68.71790397644332 93.33244800604669 H 0.0 **** 0.06
3656 C 118.77931840705898 79.26111020890681 1.927583170769708 C 0.0 **** -0.24
3657 H 119.56556583491414 79.13378716245163 2.6709494811644987 H 0.0 **** 0.06
3658 H 118.8431529035033 78.4603588249991 1.191181747315781 H 0.0 **** 0.06
3659 H 118.90187191269303 80.22343698732269 1.4299251035211142 H 0.0 **** 0.06
3660 H 117.80639403305918 79.22696670651055 2.4192275175051066 H 0.0 **** 0.06
3661 C 82.52861252475378 19.579139621848018 77.0092569716756 C 0.0 **** -0.24
3662 H 82.58575547277155 20.260765773334008 76.16137130145049 H 0.0 **** 0.06
3663 H 81.67435217925981 18.914089223160726 76.8842773199585 H 0.0 **** 0.06
3664 H 82.4109074811978 20.15292812505323 77.92901239216971 H 0.0 **** 0.06
3665 H 83.44481095387607 18.98986824387313 77.06374982016135 H 0.0 **** 0.06
3666 C 46.27351797876974 66.99434722576746 18.4802368901735 C 0.0 **** -0.24
3667 H 45.22802960272098 67.2798553555154 18.599567975410707 H 0.0 **** 0.06
3668 H 46.33644603802555 65.92971567987166 18.256273927154723 H 0.0 **** 0.06
3669 H 46.81409084089562 67.20425212374863 19.404010511725573 H 0.0 **** 0.06
3670 H 46.7145865450264 67.5658276472819 17.663748471570017 H 0.0 **** 0.06
3671 C 101.57029731583262 113.97402333665163 93.24790426587475 C 0.0 **** -0.24
3672 H 101.86070987275036 115.01926963367694 93.13179417371356 H 0.0 **** 0.06
3673 H 102.23991957513311 113.48867820749683 93.9588219192164 H 0.0 **** 0.06
3674 H 101.63582161350485 113.4703353129702 92.28348545224651 H 0.0 **** 0.06
3675 H 100.54663379596013 113.92125401351159 93.61825557094255 H 0.0 **** 0.06
3676 C 96.68592234249985 54.4509477474311 39.061849882535995 C 0.0 **** -0.24
3677 H 96.705950872577 54.11817214146171 40.099135237419944 H 0.0 **** 0.06
3678 H 97.64435986429602 54.23176960296004 38.59062998020181 H 0.0 **** 0.06
3679 H 96.50170484027433 55.5255890279589 39.02908051314921 H 0.0 **** 0.06
3680 H 95.89023353888574 53.93024158149832 38.52856745008614 H 0.0 **** 0.06
3681 C 55.50735446253316 2.421183093346116 93.43220642901899 C 0.0 **** -0.24
3682 H 54.59656967328513 2.864665189548191 93.0310588842698 H 0.0 **** 0.06
3683 H 55.32137769631379 2.062760159239403 94.44401583826456 H 0.0 **** 0.06
3684 H 56.298525833584335 3.170577510892997 93.45087630842966 H 0.0 **** 0.06
3685 H 55.81303297984448 1.5871015238714818 92.80091151924265 H 0.0 **** 0.06
3686 C 50.058260369812956 97.30497251974482 52.48457734110768 C 0.0 **** -0.24
3687 H 50.40608413639552 96.73074959013887 53.34237876196218 H 0.0 **** 0.06
3688 H 49.886835313781376 96.6330682687255 51.64355365658747 H 0.0 **** 0.06
3689 H 50.81113004779451 98.04395641819141 52.21273973638306 H 0.0 **** 0.06
3690 H 49.12713839894019 97.81120609482713 52.74049565788043 H 0.0 **** 0.06
3691 C 1.4372065904504723 53.7992186274972 2.165834294694065 C 0.0 **** -0.24
3692 H 1.6954335672231196 53.39398093369141 1.1874806032489005 H 0.0 **** 0.06
3693 H 1.6898066835152008 53.07246066127017 2.9378302474220277 H 0.0 **** 0.06
3694 H 0.36901718907449776 54.01155815259594 2.2009483313526346 H 0.0 **** 0.06
3695 H 1.9956207474126444 54.719728973380825 2.335999039940077 H 0.0 **** 0.06
3696 C 69.60848622955396 46.02190144141295 70.59494340938895 C 0.0 **** -0.24
3697 H 68.82871919085098 46.350973083293326 71.28170022171352 H 0.0 **** 0.06
3698 H 70.29976020077143 45.36187244939845 71.1190128092368 H 0.0 **** 0.06
3699 H 70.1495914624391 46.889355281115314 70.21659742110884 H 0.0 **** 0.06
3700 H 69.1545644868558 45.48619372806979 69.7608312824714 H 0.0 **** 0.06
3701 C 55.67165216207445 19.63909447173849 45.80068770380544 C 0.0 **** -0.24
3702 H 56.29680719531609 20.032422016737577 46.602803267412185 H 0.0 **** 0.06
3703 H 54.62186703268702 19.758919030986192 46.066234123228526 H 0.0 **** 0.06
3704 H 55.89223455713429 18.581094870713745 45.654879537311984 H 0.0 **** 0.06
3705 H 55.87857494072841 20.18354094001677 44.87959124302034 H 0.0 **** 0.06
3706 C 40.97663775042439 62.864088764917256 112.82223526397803 C 0.0 **** -0.24
3707 H 40.968717216897026 63.82657731422165 112.31075333620883 H 0.0 **** 0.06
3708 H 41.71364821268358 62.211120999460775 112.35352592563967 H 0.0 **** 0.06
3709 H 39.98885966674231 62.40708177488267 112.75173808593838 H 0.0 **** 0.06
3710 H 41.235157863811764 63.011826968471894 113.87070818843935 H 0.0 **** 0.06
3711 C 120.7426073858686 116.63305377186532 87.82471716867494 C 0.0 **** -0.24
3712 H 121.82232884180661 116.48658441586028 87.78308713487712 H 0.0 **** 0.06
3713 H 120.45943410397149 117.43889730454418 87.14647025192792 H 0.0 **** 0.06
3714 H 120.4498707129257 116.89384336631164 88.8411111193488 H 0.0 **** 0.06
3715 H 120.23979404880612 115.71295103480989 87.5262001156668 H 0.0 **** 0.06
3716 C 66.45648027286123 119.25242876772268 32.619914005552836 C 0.0 **** -0.24
3717 H 67.19121022387537 119.52922664566734 33.37532878365931 H 0.0 **** 0.06
3718 H 66.38481545377161 120.04602559935464 31.875848850891046 H 0.0 **** 0.06
3719 H 65.4853902406899 119.1087644921725 33.09278754836393 H 0.0 **** 0.06
3720 H 66.76569841856033 118.32628903925036 32.13521403799092 H 0.0 **** 0.06
3721 C 29.16932221170282 52.695540271421606 4.994551281478376 C 0.0 **** -0.24
3722 H 28.963432316595316 52.08357518441781 5.872426990924378 H 0.0 **** 0.06
3723 H 29.550801980022044 52.06399717529217 4.19256675439545 H 0.0 **** 0.06
3724 H 29.912763526569734 53.45298161595497 5.24595416469263 H 0.0 **** 0.06
3725 H 28.250766337432594 53.18375101675426 4.668342601752617 H 0.0 **** 0.06
3726 C 28.87875613877671 30.113310099413013 99.93928765103773 C 0.0 **** -0.24
3727 H 28.787200205428775 30.26446443155288 98.86374007781238 H 0.0 **** 0.06
3728 H 28.005480289428277 30.530340101947615 100.44053904264025 H 0.0 **** 0.06
3729 H 29.778383291496567 30.610256665879888 100.30009607052276 H 0.0 **** 0.06
3730 H 28.94347215336765 29.045758472090654 100.15139636685585 H 0.0 **** 0.06
3731 C 95.43731879590602 20.268305246728602 48.381360907746746 C 0.0 **** -0.24
3732 H 95.49270400891076 21.276933883143954 48.79309572139002 H 0.0 **** 0.06
3733 H 95.89921046683557 20.25379746587332 47.393904405569344 H 0.0 **** 0.06
3734 H 94.3925054718517 19.967756589108816 48.2982442989854 H 0.0 **** 0.06
3735 H 95.96287031993249 19.577903498245902 49.04029464649498 H 0.0 **** 0.06
3736 C 112.22018655288903 67.85383377871315 63.74273075560558 C 0.0 **** -0.24
3737 H 111.23821208008145 67.6512709692432 63.31460206384921 H 0.0 **** 0.06
3738 H 112.53740225503222 67.0006985234198 64.34313660763371 H 0.0 **** 0.06
3739 H 112.16625218136625 68.74143869744421 64.37203610898192 H 0.0 **** 0.06
3740 H 112.93890021117544 68.02064670638529 62.93931496943037 H 0.0 **** 0.06
3741 C 54.509016248358634 10.126811118457908 19.721349159360095 C 0.0 **** -0.24
3742 H 53.80090290888411 10.789364498273187 19.22384316512573 H 0.0 **** 0.06
3743 H 54.89993123882205 10.618140747833081 20.613009092049623 H 0.0 **** 0.06
3744 H 55.33040059159377 9.8979726829794 19.043368066057877 H 0.0 **** 0.06
3745 H 54.004982228545714 9.20375709371666 20.006595800140637 H 0.0 **** 0.06
3746 C 4.254437325283142 32.559407845591124 75.3936199287964 C 0.0 **** -0.24
3747 H 4.596998109280467 32.66300654839051 74.36365819748275 H 0.0 **** 0.06
3748 H 3.9672628428634056 33.53731188696304 75.78023241782633 H 0.0 **** 0.06
3749 H 5.058320668682239 32.147603127797765 76.00348887608476 H 0.0 **** 0.06
3750 H 3.395038465424701 31.88922967570943 75.42352902471612 H 0.0 **** 0.06
3751 C 52.14624711752228 26.092441022758194 59.88690417554483 C 0.0 **** -0.24
3752 H 51.584774522322725 25.428603827662933 59.229462608986495 H 0.0 **** 0.06
3753 H 52.918650603145835 26.604373663790376 59.3123830109279 H 0.0 **** 0.06
3754 H 52.61040796532568 25.508440599933273 60.68123149220958 H 0.0 **** 0.06
3755 H 51.47023159088219 26.827625654636307 60.3226348627376 H 0.0 **** 0.06
3756 C 105.50467801611022 38.57337595590036 117.38220915219541 C 0.0 **** -0.24
3757 H 105.06200052849876 38.97124704687781 118.29611506547542 H 0.0 **** 0.06
3758 H 105.21651941745839 37.528447525268916 117.26593825516906 H 0.0 **** 0.06
3759 H 106.58995077220663 38.64752225220451 117.44311909302822 H 0.0 **** 0.06
3760 H 105.14806893854175 39.14729428256709 116.52730659044732 H 0.0 **** 0.06
3761 C 11.547979974551026 41.425339706105916 5.602651488595939 C 0.0 **** -0.24
3762 H 10.786637460489786 40.70844727683422 5.908325285018918 H 0.0 **** 0.06
3763 H 12.534280349140317 41.04228604126493 5.863661341776378 H 0.0 **** 0.06
3764 H 11.379834877969657 42.37334859187686 6.114082921308864 H 0.0 **** 0.06
3765 H 11.491312916894557 41.579695611815254 4.524895564273436 H 0.0 **** 0.06
3766 C 104.44800438891473 100.5442701683663 123.2395863241977 C 0.0 **** -0.24
3767 H 103.87640161519501 99.76832784179584 123.74878616893915 H 0.0 **** 0.06
3768 H 104.84412669440569 100.14831980754454 122.30336399457005 H 0.0 **** 0.06
3769 H 105.27209240815941 100.86495965820026 123.87681618111306 H 0.0 **** 0.06
3770 H 103.79850814485573 101.39437660348696 123.02929267309547 H 0.0 **** 0.06
3771 C 99.29034882762305 106.82482974345234 3.380388847513416 C 0.0 **** -0.24
3772 H 99.65629042771255 107.68318544377723 3.9441068298324353 H 0.0 **** 0.06
3773 H 100.06368727686643 106.05777428279595 3.342556888247458 H 0.0 **** 0.06
3774 H 99.0368283641638 107.13651420832258 2.3669304624278027 H 0.0 **** 0.06
3775 H 98.40258729931827 106.42241881517123 3.868775626777847 H 0.0 **** 0.06
3776 C 75.30632911996392 84.09879972038006 118.48157405650511 C 0.0 **** -0.24
3777 H 74.79692892532432 83.41361824724027 119.1603144933849 H 0.0 **** 0.06
3778 H 76.17284925907241 83.60093547692989 118.0459081596951 H 0.0 **** 0.06
3779 H 75.63228577708418 84.98005571378144 119.0336517816133 H 0.0 **** 0.06
3780 H 74.62194570222768 84.39944823880697 117.68906573147133 H 0.0 **** 0.06
3781 C 9.885557864706584 43.939017690881 72.86946867782957 C 0.0 **** -0.24
3782 H 10.259575714604296 43.506793326142144 71.94098955048162 H 0.0 **** 0.06
3783 H 9.248771406200717 44.79406081229527 72.64062370816063 H 0.0 **** 0.06
3784 H 10.726333664624349 44.26511172304623 73.4819623177384 H 0.0 **** 0.06
3785 H 9.308004156057393 43.190247444768204 73.41189614580118 H 0.0 **** 0.06
3786 C 11.353894162375127 106.29947354069998 47.363482016321484 C 0.0 **** -0.24
3787 H 11.723087240855534 106.26785840249678 48.38830865165926 H 0.0 **** 0.06
3788 H 11.351283468317376 107.33081717403053 47.010069754561016 H 0.0 **** 0.06
3789 H 10.340113104616705 105.89989063069942 47.32996790606279 H 0.0 **** 0.06
3790 H 12.002726323281138 105.69875191560584 46.72558931510264 H 0.0 **** 0.06
3791 C 46.468537635841045 106.67845239872139 70.06940408495507 C 0.0 **** -0.24
3792 H 46.59255813896348 105.81195040035058 70.71931248981855 H 0.0 **** 0.06
3793 H 46.14049632871291 106.34853229853022 69.08270532703477 H 0.0 **** 0.06
3794 H 47.419990560935844 107.20325856863732 69.97868161822691 H 0.0 **** 0.06
3795 H 45.72215427089526 107.34853963983838 70.49566650755952 H 0.0 **** 0.06
3796 C 90.09136945592388 66.00598157191524 12.321916339886343 C 0.0 **** -0.24
3797 H 91.0118931437389 66.3862576101248 12.765488223166756 H 0.0 **** 0.06
3798 H 89.52830899485964 65.45110364147354 13.072773276516159 H 0.0 **** 0.06
3799 H 90.33562821220875 65.34537809584972 11.489576592865092 H 0.0 **** 0.06
3800 H 89.4905670359743 66.84013976472843 11.960067962827623 H 0.0 **** 0.06
3801 C 74.86524591785614 50.07922034114378 45.5206676532219 C 0.0 **** -0.24
3802 H 75.62794471443414 49.80979300160766 46.25087730087741 H 0.0 **** 0.06
3803 H 74.84170297428473 51.16359447910449 45.403499929092874 H 0.0 **** 0.06
3804 H 73.89234362128006 49.72953314010081 45.86705577003226 H 0.0 **** 0.06
3805 H 75.09820385833902 49.614838692859905 44.56313701710259 H 0.0 **** 0.06
3806 C 113.5017020649907 85.39581905469797 91.42423582081133 C 0.0 **** -0.24
3807 H 114.50947651154229 85.79067459740898 91.54961694428917 H 0.0 **** 0.06
3808 H 113.06923248507442 85.79140423081842 90.50514706263036 H 0.0 **** 0.06
3809 H 112.88618756659784 85.6918935909317 92.27304641163121 H 0.0 **** 0.06
3810 H 113.54268238148717 84.3082689828208 91.36705067331482 H 0.0 **** 0.06
3811 C 120.19218581499791 18.300449898522825 84.73142192468005 C 0.0 **** -0.24
3812 H 120.30329367574333 19.07460040304047 85.49146916814404 H 0.0 **** 0.06
3813 H 119.31480017592327 18.51571143457081 84.1214025583335 H 0.0 **** 0.06
3814 H 120.06936385869565 17.331312608918484 85.21597784701123 H 0.0 **** 0.06
3815 H 121.0799428362927 18.28144107796391 84.0999357433841 H 0.0 **** 0.06
3816 C 30.401654064190666 72.47318038830502 94.45000414372566 C 0.0 **** -0.24
3817 H 31.474272813651964 72.29361414109452 94.37248173570424 H 0.0 **** 0.06
3818 H 29.88261044535801 71.90870739386905 93.67604186355305 H 0.0 **** 0.06
3819 H 30.2017349679125 73.5369858363717 94.32023106680828 H 0.0 **** 0.06
3820 H 30.050581772810915 72.15488983647293 95.43087824438521 H 0.0 **** 0.06
3821 C 48.4551547690125 81.49502351691447 2.6701367827581315 C 0.0 **** -0.24
3822 H 48.91439472014965 82.05178374345203 1.8536532288982936 H 0.0 **** 0.06
3823 H 47.39733293890317 81.33974785713896 2.4547459130969536 H 0.0 **** 0.06
3824 H 48.558098432460575 82.05993310195649 3.5966406798949 H 0.0 **** 0.06
3825 H 48.95043276008571 80.52986851209478 2.776085980330093 H 0.0 **** 0.06
3826 C 24.35498859323681 117.86903629291578 64.94744845495639 C 0.0 **** -0.24
3827 H 24.944699542887008 117.10922868940065 65.46098437892697 H 0.0 **** 0.06
3828 H 24.27626256661034 117.61401402800021 63.890588687194494 H 0.0 **** 0.06
3829 H 24.842305120798272 118.83898006951853 65.05210235706433 H 0.0 **** 0.06
3830 H 23.35876256314745 117.91393844218857 65.38695064662726 H 0.0 **** 0.06
3831 C 26.693679324276417 15.883372572078926 58.531976979653564 C 0.0 **** -0.24
3832 H 26.426014006809623 15.628083231464203 59.557655475417846 H 0.0 **** 0.06
3833 H 27.451287233164066 15.186858616078652 58.17046852466029 H 0.0 **** 0.06
3834 H 27.088939434625303 16.89810494538189 58.50269744178411 H 0.0 **** 0.06
3835 H 25.80863904006199 15.819117880036899 57.899139933889046 H 0.0 **** 0.06
3836 C 119.57751754170394 4.293245033479508 99.16852685322658 C 0.0 **** -0.24
3837 H 118.95466381493664 3.406279815617438 99.27952047418574 H 0.0 **** 0.06
3838 H 120.55017340578657 4.113539012467541 99.62717601747767 H 0.0 **** 0.06
3839 H 119.09582573291065 5.13920757577047 99.65892066317963 H 0.0 **** 0.06
3840 H 119.71003313978518 4.5137543473782955 98.1097426835824 H 0.0 **** 0.06
3841 C 33.26058081060353 76.32836307284992 63.84850067739039 C 0.0 **** -0.24
3842 H 32.55191998655914 75.95214761781037 64.58600081323716 H 0.0 **** 0.06
3843 H 33.1390553978853 77.40668332508352 63.74542440343971 H 0.0 **** 0.06
3844 H 33.07425762448179 75.84813123101495 62.887566866317144 H 0.0 **** 0.06
3845 H 34.27637547027652 76.10634599824974 64.17432623134543 H 0.0 **** 0.06
3846 C 61.52525406219192 22.097511694706583 27.886516795621304 C 0.0 **** -0.24
3847 H 60.94456126603518 21.296644804722497 27.426498403563315 H 0.0 **** 0.06
3848 H 61.157642765737734 23.06045196361672 27.53351449913346 H 0.0 **** 0.06
3849 H 62.57469180951864 21.985918549235905 27.615061353559945 H 0.0 **** 0.06
3850 H 61.42197382865925 22.044074377104963 28.97018756701258 H 0.0 **** 0.06
3851 C 116.69507165411085 109.6268678892671 49.42539376859655 C 0.0 **** -0.24
3852 H 117.49130818853311 110.35342047146631 49.261358803177636 H 0.0 **** 0.06
3853 H 117.12764840007672 108.63150421530727 49.5279668549326 H 0.0 **** 0.06
3854 H 116.01064195454111 109.64103740465448 48.577051308010944 H 0.0 **** 0.06
3855 H 116.15110430147769 109.88356419457226 50.333931157256046 H 0.0 **** 0.06
3856 C 112.4735665209239 7.825759802798075 57.07416144662429 C 0.0 **** -0.24
3857 H 112.63427222846073 7.949545852399389 56.002801356536736 H 0.0 **** 0.06
3858 H 112.55817511341658 6.7710011143411855 57.335073660505046 H 0.0 **** 0.06
3859 H 111.47954964558514 8.187649603582845 57.33546565325142 H 0.0 **** 0.06
3860 H 113.22370675869342 8.397400594100258 57.62098331676165 H 0.0 **** 0.06
3861 C 95.17776723105004 21.203890932233335 109.06311309069812 C 0.0 **** -0.24
3862 H 95.13308011489892 21.998725361361856 109.8073247357058 H 0.0 **** 0.06
3863 H 94.37393764446773 21.3394931258319 108.33885498732886 H 0.0 **** 0.06
3864 H 95.06446287115011 20.238548155706354 109.55591540889023 H 0.0 **** 0.06
3865 H 96.13919980726314 21.24015125867858 108.55048133564205 H 0.0 **** 0.06
3866 C 17.477052559710344 91.44708021739407 64.21311739076924 C 0.0 **** -0.24
3867 H 16.84709433652432 91.6408620488319 65.0813834534967 H 0.0 **** 0.06
3868 H 17.336849462161638 92.24001289065643 63.47835036388972 H 0.0 **** 0.06
3869 H 17.201924368740663 90.48881818548159 63.77243602405139 H 0.0 **** 0.06
3870 H 18.522614034597808 91.4186541250752 64.52126169550655 H 0.0 **** 0.06
3871 C 71.23615563246781 70.71829119900384 20.776234721738547 C 0.0 **** -0.24
3872 H 70.77128557118712 71.70039854888107 20.85882801502524 H 0.0 **** 0.06
3873 H 71.1949687734473 70.21515253307851 21.74346166217248 H 0.0 **** 0.06
3874 H 72.27587184128467 70.833234079704 20.469908026905244 H 0.0 **** 0.06
3875 H 70.7013178027374 70.12454688742454 20.03530701527052 H 0.0 **** 0.06
3876 C 3.254942060599575 101.50813924697553 119.10396565988009 C 0.0 **** -0.24
3877 H 3.496015288952819 100.95976270009709 120.01454161058228 H 0.0 **** 0.06
3878 H 4.093566560898807 101.44633094562363 118.41050089278117 H 0.0 **** 0.06
3879 H 3.062160930168133 102.55252875370161 119.34900380649258 H 0.0 **** 0.06
3880 H 2.368915852811554 101.07324676981278 118.64267319465122 H 0.0 **** 0.06
3881 C 26.786405668100052 68.40675544024589 99.57781774780835 C 0.0 **** -0.24
3882 H 27.809702760144468 68.66384760643462 99.85265483098914 H 0.0 **** 0.06
3883 H 26.77001247282488 68.02192413760275 98.55693285173811 H 0.0 **** 0.06
3884 H 26.159446774806774 69.29570136095731 99.64101869740642 H 0.0 **** 0.06
3885 H 26.408333014980094 67.64576561901202 100.25946149044495 H 0.0 **** 0.06
3886 C 94.8840837193444 104.0649485975404 33.85182317978317 C 0.0 **** -0.24
3887 H 93.98623258067505 104.43906929249133 33.36036542948321 H 0.0 **** 0.06
3888 H 94.82997643583641 102.9784764804393 33.9309466814984 H 0.0 **** 0.06
3889 H 94.95899888801637 104.49902042863692 34.849088488023455 H 0.0 **** 0.06
3890 H 95.76061687734301 104.34404389198099 33.26716503803277 H 0.0 **** 0.06
3891 C 96.67486049804226 97.50701781569501 73.34299743865738 C 0.0 **** -0.24
3892 H 95.99075016089361 96.67276831243797 73.18811518414421 H 0.0 **** 0.06
3893 H 96.50400557813745 97.93811253913702 74.32919347230599 H 0.0 **** 0.06
3894 H 96.50184901959429 98.2645546945219 72.57883869020536 H 0.0 **** 0.06
3895 H 97.70287291175 97.15078790949124 73.2745835975175 H 0.0 **** 0.06
3896 C 4.501403855211606 94.6708652766306 49.46856572006869 C 0.0 **** -0.24
3897 H 3.9508183841884943 94.9544800500799 50.36475093130284 H 0.0 **** 0.06
3898 H 4.374110175481235 93.60329379867491 49.2864580106964 H 0.0 **** 0.06
3899 H 5.560537849982609 94.89222296536227 49.60838982548793 H 0.0 **** 0.06
3900 H 4.122089337487296 95.23385545398537 48.61570449474309 H 0.0 **** 0.06
3901 C 107.63224111527262 25.5782889674378 92.98911894053961 C 0.0 **** -0.24
3902 H 106.77817039182293 24.90822221933888 93.0964434870964 H 0.0 **** 0.06
3903 H 107.90771617378692 25.97495058169767 93.96672101065681 H 0.0 **** 0.06
3904 H 107.36824033547515 26.39954073154354 92.32403266879851 H 0.0 **** 0.06
3905 H 108.47390992574276 25.027300777476853 92.56979887170858 H 0.0 **** 0.06
3906 C 89.23531143113028 22.39800290865307 34.90340073753379 C 0.0 **** -0.24
3907 H 89.11630457712573 21.54925753935771 35.577231131182145 H 0.0 **** 0.06
3908 H 88.4792230558952 22.347069246743914 34.119601742307566 H 0.0 **** 0.06
3909 H 90.2283273589432 22.36868296026003 34.45477793363483 H 0.0 **** 0.06
3910 H 89.11607914910276 23.32563085475239 35.4631754790189 H 0.0 **** 0.06
3911 C 14.746096161876146 120.56903091261375 18.501031179999416 C 0.0 **** -0.24
3912 H 15.457180269424185 120.73660403862556 17.69234624473421 H 0.0 **** 0.06
3913 H 13.816284441203752 120.1747142270498 18.089828945859438 H 0.0 **** 0.06
3914 H 14.547182705441799 121.51258509238767 19.010379506576214 H 0.0 **** 0.06
3915 H 15.163437636051281 119.85382885994251 19.210045876784704 H 0.0 **** 0.06
3916 C 34.15881047027725 44.61190641899137 115.67010227027367 C 0.0 **** -0.24
3917 H 34.23317249382955 43.81200806221927 116.40719700373245 H 0.0 **** 0.06
3918 H 35.0585749498073 44.6241874725148 115.0545043531638 H 0.0 **** 0.06
3919 H 34.056210579637664 45.568485775965506 116.18364094179088 H 0.0 **** 0.06
3920 H 33.28673809450253 44.443219724105006 115.03875826864339 H 0.0 **** 0.06
3921 C 7.263490536566355 113.0158473397598 66.9709400658405 C 0.0 **** -0.24
3922 H 7.188341133565629 113.78468340925792 67.74014250345263 H 0.0 **** 0.06
3923 H 7.367940785163736 113.489955440892 65.99443485712493 H 0.0 **** 0.06
3924 H 6.3635959956496 112.4006034362485 66.98249346907897 H 0.0 **** 0.06
3925 H 8.134329528027475 112.39058428892304 67.16670076235647 H 0.0 **** 0.06
3926 C 74.83603469479795 38.647962776390195 91.22361714904468 C 0.0 **** -0.24
3927 H 75.08480763445448 38.315322958982115 92.23166105430226 H 0.0 **** 0.06
3928 H 75.03174506078062 37.84153932643627 90.51608026694907 H 0.0 **** 0.06
3929 H 75.44537930264283 39.51400557256148 90.96612403064893 H 0.0 **** 0.06
3930 H 73.78122208263073 38.92086564138675 91.18073204998524 H 0.0 **** 0.06
3931 C 1.795046418550399 15.677829685988513 82.54307929778847 C 0.0 **** -0.24
3932 H 2.5532966012778786 15.505351903730741 81.77849912216972 H 0.0 **** 0.06
3933 H 1.4570277586722966 14.720224448718966 82.9402346202364 H 0.0 **** 0.06
3934 H 0.9504502107171788 16.208165867965022 82.10361431985959 H 0.0 **** 0.06
3935 H 2.221289346017656 16.2759731165184 83.34826566955174 H 0.0 **** 0.06
3936 C 108.50981125320517 2.935348345217978 43.08822390842445 C 0.0 **** -0.24
3937 H 108.91293866707295 2.2716115789266667 42.322810592667764 H 0.0 **** 0.06
3938 H 107.56604178312307 3.355877209006419 42.74191864516854 H 0.0 **** 0.06
3939 H 109.21833312511782 3.7411722132373804 43.27948903588967 H 0.0 **** 0.06
3940 H 108.34318067357067 2.37227728562981 44.00598797690958 H 0.0 **** 0.06
3941 C 22.53822707912684 1.3127010586342607 80.29371111008948 C 0.0 **** -0.24
3942 H 22.935985982252987 1.1071901388404086 81.28753394410467 H 0.0 **** 0.06
3943 H 23.2456393764748 1.9303572386082521 79.74069540192193 H 0.0 **** 0.06
3944 H 21.588105303178395 1.8389095088603824 80.38572732809416 H 0.0 **** 0.06
3945 H 22.38356130816601 0.3729817306629428 79.76371414817231 H 0.0 **** 0.06
3946 C 114.18016339329765 10.55706193081258 29.68777481203915 C 0.0 **** -0.24
3947 H 113.14870250169373 10.349551432395572 29.402696688234926 H 0.0 **** 0.06
3948 H 114.31293386235363 10.34613975370894 30.749193475074435 H 0.0 **** 0.06
3949 H 114.40808815547321 11.604923041870109 29.493061973151384 H 0.0 **** 0.06
3950 H 114.85084549387295 9.925570517394391 29.10482898356736 H 0.0 **** 0.06
3951 C 66.1377583788784 73.06974698253296 119.84992072934428 C 0.0 **** -0.24
3952 H 66.22777570703747 73.53273662772705 120.83243086125994 H 0.0 **** 0.06
3953 H 66.55144839762761 73.73732134744436 119.09450712905853 H 0.0 **** 0.06
3954 H 65.08567895212997 72.88153237214634 119.63243756370433 H 0.0 **** 0.06
3955 H 66.68449669453359 72.12691590270549 119.84062194201184 H 0.0 **** 0.06
3956 C 70.60210133958583 50.233845549974234 12.974275798763728 C 0.0 **** -0.24
3957 H 71.2279656344677 49.36636372405613 12.766904569868018 H 0.0 **** 0.06
3958 H 69.5516260559121 49.944244258598665 12.923574951600841 H 0.0 **** 0.06
3959 H 70.8009053658651 51.01160837560537 12.236900279512582 H 0.0 **** 0.06
3960 H 70.82684199902548 50.612374536023424 13.971522588699116 H 0.0 **** 0.06
3961 C 4.8518654604249605 59.041715292732476 114.22449778111617 C 0.0 **** -0.24
3962 H 5.04212022844618 58.16511644191101 113.60573914325865 H 0.0 **** 0.06
3963 H 5.801012359035667 59.494282802390046 114.51396728817254 H 0.0 **** 0.06
3964 H 4.304042167508186 58.74367216695805 115.11780488369835 H 0.0 **** 0.06
3965 H 4.2619106795865775 59.762831318532164 113.65981231308015 H 0.0 **** 0.06
3966 C 46.42259173823396 0.6428336069533174 33.74576644500365 C 0.0 **** -0.24
3967 H 47.10226591958798 1.4438695465662903 34.038922061772666 H 0.0 **** 0.06
3968 H 46.56684065721794 -0.21330219698972996 34.40426352449012 H 0.0 **** 0.06
3969 H 46.629790693310156 0.3503919929365651 32.716938402921386 H 0.0 **** 0.06
3970 H 45.393437033163735 0.9940891511879499 33.8235216291111 H 0.0 **** 0.06
3971 C 67.3639101166651 44.174094839629845 84.42644738866325 C 0.0 **** -0.24
3972 H 66.92443490514113 45.16710101938489 84.52085593192403 H 0.0 **** 0.06
3973 H 68.4066036190552 44.266697570117486 84.11896109459342 H 0.0 **** 0.06
3974 H 66.81329195389235 43.602932731879235 83.6790812233418 H 0.0 **** 0.06
3975 H 67.31234101814651 43.66185192380641 85.38717447137249 H 0.0 **** 0.06
3976 C 44.514224463864366 55.089812540870184 110.19257740726451 C 0.0 **** -0.24
3977 H 45.05459126046276 55.9012615909927 109.70521423253388 H 0.0 **** 0.06
3978 H 43.63215152951699 54.83640696593034 109.60379586495769 H 0.0 **** 0.06
3979 H 44.2086496697664 55.405086926492004 111.19008369668785 H 0.0 **** 0.06
3980 H 45.1629642916256 54.21758647120919 110.27039131725878 H 0.0 **** 0.06
3981 C 119.44440772152521 2.237629599535751 70.80898551828291 C 0.0 **** -0.24
3982 H 119.18475912853404 2.912139240740885 71.62550809120188 H 0.0 **** 0.06
3983 H 118.53789582452983 1.9358151930682084 70.28463741317913 H 0.0 **** 0.06
3984 H 119.94261672785304 1.3561415382994824 71.21232195459544 H 0.0 **** 0.06
3985 H 120.1127495678289 2.7483351082641434 70.1161560043836 H 0.0 **** 0.06
3986 C 108.62905386896247 119.91214411937725 63.73527837077968 C 0.0 **** -0.24
3987 H 107.71402432062764 120.4876566847143 63.60013456674298 H 0.0 **** 0.06
3988 H 108.38426295626364 118.8506738802343 63.79751322350728 H 0.0 **** 0.06
3989 H 109.1217313466917 120.22484086569142 64.65587293387883 H 0.0 **** 0.06
3990 H 109.29543577344121 120.0828214621585 62.88952833097888 H 0.0 **** 0.06
3991 C 59.01698685895013 78.46084836125637 70.61844480566684 C 0.0 **** -0.24
3992 H 58.495729148519274 77.87884130691648 69.85835277220609 H 0.0 **** 0.06
3993 H 59.08920323083284 77.8779666150059 71.5361720656089 H 0.0 **** 0.06
3994 H 58.46352780354664 79.38010842712501 70.81380290866953 H 0.0 **** 0.06
3995 H 60.01747487074597 78.70721606998626 70.26335273415756 H 0.0 **** 0.06
3996 C 114.71678734740166 50.11137844594003 0.28335697631752055 C 0.0 **** -0.24
3997 H 115.79302443062295 50.17064699885685 0.11912627810579579 H 0.0 **** 0.06
3998 H 114.22444352853633 50.93377970593957 -0.2355162566072977 H 0.0 **** 0.06
3999 H 114.5075949867055 50.17699946749917 1.350721067712385 H 0.0 **** 0.06
4000 H 114.34243158410274 49.162201534126496 -0.10242762224697799 H 0.0 **** 0.06
4001 C 71.99888324111987 47.19070116272971 24.315695755026432 C 0.0 **** -0.24
4002 H 71.30355947904064 47.61161957678351 23.589600548627836 H 0.0 **** 0.06
4003 H 72.04747933936099 46.10949757609791 24.187825079300772 H 0.0 **** 0.06
4004 H 71.65514989281664 47.422721862492125 25.324484915234265 H 0.0 **** 0.06
4005 H 72.98861364701898 47.62009450697877 24.161310621957064 H 0.0 **** 0.06
4006 C 12.074568640317523 106.632040912009 52.9140576099754 C 0.0 **** -0.24
4007 H 13.146808290423394 106.49232852485406 52.776013059683976 H 0.0 **** 0.06
4008 H 11.650058810976475 105.7440110669099 53.38441833348723 H 0.0 **** 0.06
4009 H 11.601873090366581 106.79063669757745 51.94522173404094 H 0.0 **** 0.06
4010 H 11.899830638230753 107.49875598802674 53.550608669666815 H 0.0 **** 0.06
4011 C 68.62009568037035 4.126318754444526 97.79858993449909 C 0.0 **** -0.24
4012 H 69.49564659039879 4.609217104949494 97.36538968205721 H 0.0 **** 0.06
4013 H 67.73058036828144 4.712854191370383 97.57022977880746 H 0.0 **** 0.06
4014 H 68.74216384600408 4.0563115645076095 98.87964131314374 H 0.0 **** 0.06
4015 H 68.51373095996877 3.125564998190285 97.37956226366555 H 0.0 **** 0.06
4016 C 53.69022360389815 1.3140683669586792 70.48551707533579 C 0.0 **** -0.24
4017 H 53.506477824614066 2.1688804595044644 69.83494082203441 H 0.0 **** 0.06
4018 H 54.28689124390853 1.631769935364531 71.34113568054815 H 0.0 **** 0.06
4019 H 54.2301334600718 0.5462789953094074 69.93097081243491 H 0.0 **** 0.06
4020 H 52.74032752693289 0.9108567656487168 70.83326185473865 H 0.0 **** 0.06
4021 C 47.75231662301743 20.578076796953823 112.71702729459872 C 0.0 **** -0.24
4022 H 48.09538901553219 21.358926547610096 112.03918318061858 H 0.0 **** 0.06
4023 H 47.34629788230403 19.747322103474502 112.13982357660069 H 0.0 **** 0.06
4024 H 46.97739574431415 20.979506166484768 113.37101878318043 H 0.0 **** 0.06
4025 H 48.590345790301534 20.227372354905242 113.32015768442415 H 0.0 **** 0.06
4026 C 94.80435697449582 88.9195790737072 5.760960732127234 C 0.0 **** -0.24
4027 H 95.09693549880143 89.9695915380145 5.759133015322629 H 0.0 **** 0.06
4028 H 94.04000177712521 88.75410761149216 5.00166366433875 H 0.0 **** 0.06
4029 H 94.40700868210723 88.6556927168826 6.7412255179997835 H 0.0 **** 0.06
4030 H 95.67504425470554 88.30034007892029 5.543706343561361 H 0.0 **** 0.06
4031 C 69.17291128348785 10.082475919930186 4.789170468183428 C 0.0 **** -0.24
4032 H 69.56201741617775 9.509749118795433 3.9466509147999034 H 0.0 **** 0.06
4033 H 69.99937061307037 10.56945991414587 5.308391387327333 H 0.0 **** 0.06
4034 H 68.65570550624005 9.412808489832244 5.475811850710556 H 0.0 **** 0.06
4035 H 68.4778762176536 10.838494212082399 4.424222127504791 H 0.0 **** 0.06
4036 C 32.401353296724636 21.3304153992504 77.64780539295225 C 0.0 **** -0.24
4037 H 33.00148723480736 20.82133568159952 76.89365567142397 H 0.0 **** 0.06
4038 H 32.25010324302988 22.36884985970744 77.35135631907184 H 0.0 **** 0.06
4039 H 32.92004576178896 21.297493126093855 78.60655824100735 H 0.0 **** 0.06
4040 H 31.43591495829505 20.83329201402057 77.74062697664732 H 0.0 **** 0.06
4041 C 98.81665877692156 50.92945212811205 28.77998574464604 C 0.0 **** -0.24
4042 H 98.48559250680199 49.893359082099266 28.70448694380456 H 0.0 **** 0.06
4043 H 97.95028623701398 51.591031496954 28.744318587744438 H 0.0 **** 0.06
4044 H 99.48372789994008 51.15840573845631 27.949891383566488 H 0.0 **** 0.06
4045 H 99.34574954899388 51.07299669281966 29.72179601759106 H 0.0 **** 0.06
4046 C 41.35721694836306 6.457229533272709 67.30441039336654 C 0.0 **** -0.24
4047 H 40.8635434827859 6.518373416773443 66.33525325042919 H 0.0 **** 0.06
4048 H 42.43264440101275 6.3533972392957025 67.15808066314841 H 0.0 **** 0.06
4049 H 40.979752964746595 5.591414331704414 67.85070867862649 H 0.0 **** 0.06
4050 H 41.15247389150892 7.362667793524906 67.8747817537967 H 0.0 **** 0.06
4051 C 9.878447463592522 66.16889557544121 27.186149998152445 C 0.0 **** -0.24
4052 H 10.573405923875924 65.43089441162917 27.58717337087296 H 0.0 **** 0.06
4053 H 8.947939185408785 65.67704110104486 26.904747855812218 H 0.0 **** 0.06
4054 H 10.319378424015582 66.64184789572127 26.307960517871834 H 0.0 **** 0.06
4055 H 9.676062572626677 66.92593912585855 27.943716575603872 H 0.0 **** 0.06
4056 C 117.59030666256457 36.244211025995696 30.270468474848258 C 0.0 **** -0.24
4057 H 118.2443316504728 37.054047046581445 29.94738700736025 H 0.0 **** 0.06
4058 H 118.1205344850462 35.294790287657975 30.189589073809373 H 0.0 **** 0.06
4059 H 116.70242762414546 36.219852708234555 29.639051682122783 H 0.0 **** 0.06
4060 H 117.29423334796873 36.40708270915064 31.30750810601188 H 0.0 **** 0.06
4061 C 48.01901143719192 8.092262485343042 21.857081067465856 C 0.0 **** -0.24
4062 H 48.658416015179 7.315071349092534 22.27624625588743 H 0.0 **** 0.06
4063 H 47.157544620890405 8.24449845010247 22.508001101355774 H 0.0 **** 0.06
4064 H 47.67737722946828 7.786252825741144 20.86737406107494 H 0.0 **** 0.06
4065 H 48.58228558229425 9.021168965140134 21.77480936775828 H 0.0 **** 0.06
4066 C 32.95115704062286 113.96663625074916 5.216417571741317 C 0.0 **** -0.24
4067 H 33.841639055487235 113.4108157868012 4.92390079322368 H 0.0 **** 0.06
4068 H 33.24644264919482 114.92032255719498 5.655593646826134 H 0.0 **** 0.06
4069 H 32.38669036905344 113.38878623529672 5.948001759943395 H 0.0 **** 0.06
4070 H 32.33127826306384 114.14758855281495 4.33797332060692 H 0.0 **** 0.06
4071 C 112.9454665559631 84.38077558324146 79.87065953687924 C 0.0 **** -0.24
4072 H 112.71531472533334 83.36039946491084 80.17841668016382 H 0.0 **** 0.06
4073 H 112.0189751771153 84.91162962231896 79.651551284066 H 0.0 **** 0.06
4074 H 113.57168568020941 84.35818039127196 78.97845171097379 H 0.0 **** 0.06
4075 H 113.4763192235176 84.89123592143721 80.67448502626375 H 0.0 **** 0.06
4076 C 26.155622961523306 50.88706848664367 32.93605036342615 C 0.0 **** -0.24
4077 H 25.3637556419186 51.106886746046335 32.21960160837057 H 0.0 **** 0.06
4078 H 26.766380825430133 51.77712745517598 33.087501922602314 H 0.0 **** 0.06
4079 H 26.7787083586621 50.07997752109693 32.5502570407028 H 0.0 **** 0.06
4080 H 25.713515024574605 50.58356607446552 33.88526930080778 H 0.0 **** 0.06
4081 C 101.89397688929634 49.34581899091137 69.30082959664153 C 0.0 **** -0.24
4082 H 102.18935039003159 50.030402282630945 68.50611588410239 H 0.0 **** 0.06
4083 H 102.6064714723972 49.412367620886954 70.1225159175844 H 0.0 **** 0.06
4084 H 101.8784737594215 48.32637768971847 68.91486610990691 H 0.0 **** 0.06
4085 H 100.89927760994655 49.61359376421953 69.65930526341965 H 0.0 **** 0.06
4086 C 84.26178860368103 16.722958999665433 13.880232274168819 C 0.0 **** -0.24
4087 H 84.71451834545283 17.08561915868029 12.957348152316342 H 0.0 **** 0.06
4088 H 85.04478202878377 16.48515644731393 14.600634923077589 H 0.0 **** 0.06
4089 H 83.67632373243808 15.827865032107013 13.669969617915616 H 0.0 **** 0.06
4090 H 83.61160397746724 17.49519215098078 14.292889137514216 H 0.0 **** 0.06
4091 C 112.53207704654884 120.23095396467085 106.33475864653121 C 0.0 **** -0.24
4092 H 111.6107932174612 119.77903797633343 106.70408617340703 H 0.0 **** 0.06
4093 H 112.80677815790634 121.06967307917085 106.9754475902831 H 0.0 **** 0.06
4094 H 112.37811504815758 120.58665957563363 105.31591815987244 H 0.0 **** 0.06
4095 H 113.32982166265344 119.48922974612205 106.34482544441602 H 0.0 **** 0.06
4096 C 26.24111878967662 4.871363965296922 113.27386263263725 C 0.0 **** -0.24
4097 H 26.659181471693643 4.90036734777388 114.27934163516011 H 0.0 **** 0.06
4098 H 25.156736120566222 4.770538542391392 113.33429651353191 H 0.0 **** 0.06
4099 H 26.65561223547914 4.021426995611932 112.73229545737786 H 0.0 **** 0.06
4100 H 26.49207588361452 5.793438019010836 112.74913631647269 H 0.0 **** 0.06
4101 C 15.59979330788562 82.56249450113572 44.031561776213934 C 0.0 **** -0.24
4102 H 15.08608892206341 81.79104436259595 43.45727157590296 H 0.0 **** 0.06
4103 H 14.992884207674464 83.46812577223068 44.04574219996073 H 0.0 **** 0.06
4104 H 16.562908154258892 82.77814299180628 43.569793234055616 H 0.0 **** 0.06
4105 H 15.755461970077306 82.21316205252177 45.05225507679777 H 0.0 **** 0.06
4106 C 3.2056142771750302 19.291756141405784 20.98961773957336 C 0.0 **** -0.24
4107 H 3.5262469867734225 18.76840830515789 21.890127811060324 H 0.0 **** 0.06
4108 H 2.1259155677448014 19.44170779313947 21.02214418864972 H 0.0 **** 0.06
4109 H 3.463366683558089 18.69663902741192 20.11314636967458 H 0.0 **** 0.06
4110 H 3.7056456331197225 20.258202596159038 20.932762165739035 H 0.0 **** 0.06
4111 C 83.07317880218397 37.23821891007998 61.607041342320684 C 0.0 **** -0.24
4112 H 82.95451714972 36.42570266659462 62.323955898036246 H 0.0 **** 0.06
4113 H 82.1274600800466 37.410390164495425 61.09375308795748 H 0.0 **** 0.06
4114 H 83.83943269697278 36.970833454495136 60.87942008621721 H 0.0 **** 0.06
4115 H 83.37248405449986 38.145175058085414 62.133039115542516 H 0.0 **** 0.06
4116 C 22.12347894610494 28.545771899070246 61.99572624867557 C 0.0 **** -0.24
4117 H 21.871342666124434 29.412859300220163 61.38405597804581 H 0.0 **** 0.06
4118 H 21.449855466483058 28.496853062153036 62.851421332695395 H 0.0 **** 0.06
4119 H 23.15099141307806 28.635808578583863 62.346166198226626 H 0.0 **** 0.06
4120 H 22.020289517524162 27.638617051598658 61.39990768813141 H 0.0 **** 0.06
4121 C 112.92242532768593 29.181354173043502 107.77268739384203 C 0.0 **** -0.24
4122 H 113.691555968691 28.80958619355482 108.44875489483692 H 0.0 **** 0.06
4123 H 112.16034699354464 29.711529671307147 108.34606632208175 H 0.0 **** 0.06
4124 H 112.46408178602097 28.342581029243632 107.24782686809206 H 0.0 **** 0.06
4125 H 113.37130227532057 29.861301242956046 107.0495144511091 H 0.0 **** 0.06
4126 C 85.57367329092932 75.86739478427808 113.8462592016686 C 0.0 **** -0.24
4127 H 85.08434057033622 76.83592293559359 113.94487141332957 H 0.0 **** 0.06
4128 H 85.21049478442836 75.19595617331844 114.62441682035484 H 0.0 **** 0.06
4129 H 86.65127498332765 75.99223470807961 113.94722570188512 H 0.0 **** 0.06
4130 H 85.34751757802741 75.44453313246632 112.86752465539456 H 0.0 **** 0.06
4131 C 100.88764516430149 96.39107302040811 51.18472100585706 C 0.0 **** -0.24
4132 H 100.25868592320751 96.08582188577454 50.3483032042354 H 0.0 **** 0.06
4133 H 101.84274301851514 96.75655844964348 50.806732610245234 H 0.0 **** 0.06
4134 H 101.05824791789132 95.53738780148835 51.840545638275245 H 0.0 **** 0.06
4135 H 100.39002724080206 97.18508617471859 51.742345673145856 H 0.0 **** 0.06
4136 C 37.26069243483528 46.87632490512402 122.12225763051414 C 0.0 **** -0.24
4137 H 36.67760428343456 47.34810133099687 122.91328286941658 H 0.0 **** 0.06
4138 H 38.180621386740995 47.439622771694275 121.96490466285647 H 0.0 **** 0.06
4139 H 36.67910657586174 46.8639600917428 121.20067058282551 H 0.0 **** 0.06
4140 H 37.50518098851899 45.85422434154154 122.41206016799423 H 0.0 **** 0.06
4141 C 53.23307107367299 50.028441334256684 42.01584597003707 C 0.0 **** -0.24
4142 H 54.08639546386809 49.36064167408455 41.896532016263556 H 0.0 **** 0.06
4143 H 53.20798551179689 50.4067613390535 43.03782317157411 H 0.0 **** 0.06
4144 H 52.312531835399284 49.48242558697899 41.80704205147621 H 0.0 **** 0.06
4145 H 53.325390707184454 50.863227445416044 41.320763267105725 H 0.0 **** 0.06
4146 C 71.65704221151975 27.250766659942443 116.89049390996436 C 0.0 **** -0.24
4147 H 72.6019746199428 27.590288928542954 116.46744187014093 H 0.0 **** 0.06
4148 H 70.85097667210107 27.446439861898718 116.18120326909737 H 0.0 **** 0.06
4149 H 71.46193197974483 27.786396459024864 117.8195958569896 H 0.0 **** 0.06
4150 H 71.7123753733089 26.18064526364774 117.09115074628708 H 0.0 **** 0.06
4151 C 0.2926580763303548 38.23940371956428 41.95730616894977 C 0.0 **** -0.24
4152 H 0.06669283557087624 37.588539134948235 42.802116635818834 H 0.0 **** 0.06
4153 H 0.9071143786967326 37.6987761880041 41.23645243571599 H 0.0 **** 0.06
4154 H 0.8331789142128088 39.11746544414808 42.31075706743934 H 0.0 **** 0.06
4155 H -0.6365534730058897 38.552227099667675 41.48066777710952 H 0.0 **** 0.06
4156 C 63.98508622281379 106.78869723820027 26.65126851110619 C 0.0 **** -0.24
4157 H 64.3018724490622 107.65465824037192 27.23316006129283 H 0.0 **** 0.06
4158 H 63.15946366062232 106.29118773906008 27.16018539378065 H 0.0 **** 0.06
4159 H 64.82049816077736 106.09587035129054 26.54881109184074 H 0.0 **** 0.06
4160 H 63.66113448572517 107.11510029121509 25.662850560579948 H 0.0 **** 0.06
4161 C 102.24171001951939 50.939087606869094 88.37160316314794 C 0.0 **** -0.24
4162 H 103.27315623340229 50.67946509392192 88.13737152354716 H 0.0 **** 0.06
4163 H 101.58547525043565 50.566553718399206 87.58443597120126 H 0.0 **** 0.06
4164 H 102.14633763427408 52.022819803508625 88.44134812020974 H 0.0 **** 0.06
4165 H 101.96061787405979 50.487504632389744 89.32260142233608 H 0.0 **** 0.06
4166 C 30.82975080966105 20.949584065289393 16.768608287450796 C 0.0 **** -0.24
4167 H 30.149002307794376 20.870552772209408 15.92099443693293 H 0.0 **** 0.06
4168 H 30.5856634804303 21.838996973150316 17.349559028904537 H 0.0 **** 0.06
4169 H 31.855193973445694 21.022925188974085 16.40468910497746 H 0.0 **** 0.06
4170 H 30.73018932483552 20.06474136383838 17.397905238700126 H 0.0 **** 0.06
4171 C 72.86122468402269 26.400122871011803 31.746557356894158 C 0.0 **** -0.24
4172 H 72.02868136935157 26.999082369890317 31.37866361135741 H 0.0 **** 0.06
4173 H 73.21522233522106 25.74436681616922 30.95122575638638 H 0.0 **** 0.06
4174 H 72.52980617282071 25.79862644427935 32.59278398520408 H 0.0 **** 0.06
4175 H 73.67060379631883 27.058297764351494 32.06227394196608 H 0.0 **** 0.06
4176 C 3.619148722349827 2.3533911328940462 102.41381384410826 C 0.0 **** -0.24
4177 H 3.2076480435257384 3.147016668780168 101.7893360917584 H 0.0 **** 0.06
4178 H 3.315607889911707 2.5109944685961523 103.44867463112743 H 0.0 **** 0.06
4179 H 4.707161308146016 2.3678071030162187 102.34713913149895 H 0.0 **** 0.06
4180 H 3.2462331635477337 1.3895297897669252 102.06697235305919 H 0.0 **** 0.06
4181 C 15.108291645933264 79.69055511136176 47.27553454415039 C 0.0 **** -0.24
4182 H 15.585232678700478 79.92613820385381 48.22749600548178 H 0.0 **** 0.06
4183 H 15.84839473936644 79.27118722235421 46.59264158644274 H 0.0 **** 0.06
4184 H 14.688961184055188 80.59949269878584 46.84441029209739 H 0.0 **** 0.06
4185 H 14.311379840925355 78.96494720683592 47.43905659885948 H 0.0 **** 0.06
4186 C 30.7544031668009 121.20786273450452 4.084530287306933 C 0.0 **** -0.24
4187 H 31.296076320508632 120.46921783882829 3.4941748106809882 H 0.0 **** 0.06
4188 H 29.789955766062008 121.41026886237472 3.6182989081368646 H 0.0 **** 0.06
4189 H 31.334598447754615 122.1291926292258 4.134952143414978 H 0.0 **** 0.06
4190 H 30.59701873978156 120.82300548054947 5.092089586324789 H 0.0 **** 0.06
4191 C 50.190562596707025 3.978209521323464 30.361761533474116 C 0.0 **** -0.24
4192 H 49.5143484898249 4.583824615502607 29.75804838305192 H 0.0 **** 0.06
4193 H 49.64185512421659 3.1410811269014545 30.792869231527177 H 0.0 **** 0.06
4194 H 50.60814673607251 4.590004280733865 31.16214171126216 H 0.0 **** 0.06
4195 H 50.99828743158403 3.6011384546325758 29.734724300576595 H 0.0 **** 0.06
4196 C 85.13388537571393 117.05114129404609 16.233990279394902 C 0.0 **** -0.24
4197 H 84.6388175837211 116.72733950290768 15.318911077389231 H 0.0 **** 0.06
4198 H 85.07564723609181 118.13807111826466 16.31294432297571 H 0.0 **** 0.06
4199 H 86.1796325912411 116.74424995478816 16.210856213221803 H 0.0 **** 0.06
4200 H 84.64067860915162 116.59816734064438 17.094126547176103 H 0.0 **** 0.06
4201 C 26.53165834620245 77.75306159513963 118.8932908283871 C 0.0 **** -0.24
4202 H 26.50549601710113 77.72123322621594 117.80400289481943 H 0.0 **** 0.06
4203 H 25.929695479766423 76.93714218604289 119.29433568402787 H 0.0 **** 0.06
4204 H 26.13076907670652 78.7055863473133 119.23921144693412 H 0.0 **** 0.06
4205 H 27.561550460556163 77.64645517204067 119.23424100136533 H 0.0 **** 0.06
4206 C 66.02221210334676 79.74280677783008 16.1576138495533 C 0.0 **** -0.24
4207 H 66.82183136317659 79.38303879473717 16.805719385397197 H 0.0 **** 0.06
4208 H 66.03005956151517 80.83356858363399 16.144733297800112 H 0.0 **** 0.06
4209 H 65.06297996623144 79.39046642465554 16.534176700499167 H 0.0 **** 0.06
4210 H 66.17683792771248 79.3663950071254 15.146716867419151 H 0.0 **** 0.06
4211 C 32.87621360976544 122.34945302379057 76.78965386655777 C 0.0 **** -0.24
4212 H 31.965187301822226 121.92092552922365 76.37156538811983 H 0.0 **** 0.06
4213 H 33.70079824784787 122.19797959508874 76.09412988885693 H 0.0 **** 0.06
4214 H 33.10535576368375 121.86110371121745 77.73737143311827 H 0.0 **** 0.06
4215 H 32.730920845860794 123.41675662014046 76.95702698724305 H 0.0 **** 0.06
4216 C 6.151119997664523 33.88761185061529 53.167537259235104 C 0.0 **** -0.24
4217 H 5.601864371129466 33.20119672674468 52.52333757942158 H 0.0 **** 0.06
4218 H 7.107142503031355 34.132415577269455 52.7051285744907 H 0.0 **** 0.06
4219 H 6.3248690629864655 33.41608267433082 54.135605588499615 H 0.0 **** 0.06
4220 H 5.5695832213517065 34.799054387725405 53.30635076959486 H 0.0 **** 0.06
4221 C 96.86185772834342 19.84606498767954 28.114231099804528 C 0.0 **** -0.24
4222 H 95.87735681597823 20.28710075416069 27.95463105722851 H 0.0 **** 0.06
4223 H 96.758851718101 18.929479479278598 28.69546986330468 H 0.0 **** 0.06
4224 H 97.49294904184427 20.55132734626571 28.654940322197092 H 0.0 **** 0.06
4225 H 97.31625991531243 19.616411481781682 27.149659843683736 H 0.0 **** 0.06
4226 C 59.54145080990298 81.3446693907193 37.920938178068354 C 0.0 **** -0.24
4227 H 60.39472926702254 80.66738416151352 37.9593218870001 H 0.0 **** 0.06
4228 H 59.73898665817504 82.21401321339583 38.548819267569456 H 0.0 **** 0.06
4229 H 58.65208006837409 80.82812012175576 38.282823905093665 H 0.0 **** 0.06
4230 H 59.38072882907031 81.66734311879831 36.892365474306985 H 0.0 **** 0.06
4231 C 15.901580998717634 103.0398230280606 71.55118910503879 C 0.0 **** -0.24
4232 H 16.038997428840588 103.05704470919227 70.46999354049817 H 0.0 **** 0.06
4233 H 16.78258869240244 103.46209827439338 72.03586408550105 H 0.0 **** 0.06
4234 H 15.763230570708686 102.01027420470189 71.88318180423593 H 0.0 **** 0.06
4235 H 15.023401186987172 103.62853652760305 71.81492818063741 H 0.0 **** 0.06
4236 C 112.77078000579709 94.32413442682943 7.658079111586829 C 0.0 **** -0.24
4237 H 113.65698712577506 94.66046059225242 8.19679461133694 H 0.0 **** 0.06
4238 H 113.06829019614932 93.65418411260332 6.851772137403202 H 0.0 **** 0.06
4239 H 112.24929600469929 95.18583834796026 7.2418538413177345 H 0.0 **** 0.06
4240 H 112.10815728479523 93.79498401743166 8.344064361876278 H 0.0 **** 0.06
4241 C 55.01058776065163 95.47348410062688 96.35734582686432 C 0.0 **** -0.24
4242 H 55.270541780073245 96.48782773351414 96.05467007930122 H 0.0 **** 0.06
4243 H 54.42787700853411 94.99729766630148 95.56883053594481 H 0.0 **** 0.06
4244 H 54.42134849514848 95.50819136807345 97.27401055930721 H 0.0 **** 0.06
4245 H 55.92115207544356 94.90204400524502 96.53283219491095 H 0.0 **** 0.06
4246 C 49.40560576513702 77.47358406930798 3.4978835479018073 C 0.0 **** -0.24
4247 H 49.38209373249848 77.20050206137375 2.4432205340225437 H 0.0 **** 0.06
4248 H 48.573165385844064 78.14243112154766 3.718703372272671 H 0.0 **** 0.06
4249 H 50.34688410810712 77.97669918247914 3.7211502448250826 H 0.0 **** 0.06
4250 H 49.321532095985326 76.57410869814527 4.108181350547824 H 0.0 **** 0.06
4251 C 7.116212118229143 113.12109610821933 3.7927398400170773 C 0.0 **** -0.24
4252 H 7.0644739531083225 114.02737286493992 3.1893599360989526 H 0.0 **** 0.06
4253 H 6.362662798955334 112.41217788421382 3.448678626744268 H 0.0 **** 0.06
4254 H 6.930613157681972 113.37094841594869 4.837973606262381 H 0.0 **** 0.06
4255 H 8.106248005198584 112.6755210690412 3.6962124867663135 H 0.0 **** 0.06
4256 C 14.683167574863774 28.07037557299168 18.595025477723425 C 0.0 **** -0.24
4257 H 14.471929454007864 29.115892091919534 18.818532411511157 H 0.0 **** 0.06
4258 H 15.649764308605768 27.993394851345386 18.09751727581569 H 0.0 **** 0.06
4259 H 13.904891003763566 27.673772698758285 17.941716562865622 H 0.0 **** 0.06
4260 H 14.705088572618536 27.4974480989149 19.522466218512974 H 0.0 **** 0.06
4261 C 122.42457577047468 89.88425701039478 105.38178449090653 C 0.0 **** -0.24
4262 H 122.13529597843072 90.84161056271313 105.8157627260902 H 0.0 **** 0.06
4263 H 123.47896726705918 89.91330699992108 105.10809060266321 H 0.0 **** 0.06
4264 H 121.82328271105902 89.69116121132527 104.49360807014955 H 0.0 **** 0.06
4265 H 122.2599351437446 89.09047085165452 106.11072326031024 H 0.0 **** 0.06
4266 C 73.54265930408604 67.06676657814428 30.185841904752436 C 0.0 **** -0.24
4267 H 73.06913752493077 66.99805892376665 31.165297416404556 H 0.0 **** 0.06
4268 H 72.81409077230055 67.41732560849479 29.45361443867243 H 0.0 **** 0.06
4269 H 73.90977588628041 66.08350682550694 29.890054087919104 H 0.0 **** 0.06
4270 H 74.3763767788993 67.76672773988614 30.232875990342897 H 0.0 **** 0.06
4271 C 32.38835471218907 90.96135183610365 67.18080537463322 C 0.0 **** -0.24
4272 H 31.954754297400896 91.75355862474022 66.56977850361869 H 0.0 **** 0.06
4273 H 32.120821123176455 91.12119726999606 68.22572593158333 H 0.0 **** 0.06
4274 H 33.47274559593225 90.97354134585487 67.0759794368181 H 0.0 **** 0.06
4275 H 32.00258228113745 89.99650284052784 66.85021982661783 H 0.0 **** 0.06
4276 C 80.27829461042424 8.276718387446977 16.497019534083716 C 0.0 **** -0.24
4277 H 81.1897605784067 8.261179975127789 15.899527233721503 H 0.0 **** 0.06
4278 H 79.45129799910848 8.643122330024795 15.888813596822967 H 0.0 **** 0.06
4279 H 80.4185118121968 8.934580124333849 17.35499086399314 H 0.0 **** 0.06
4280 H 80.05476160122396 7.268054049370363 16.845562206060055 H 0.0 **** 0.06
4281 C 40.563682355066966 10.908591984586167 123.5283339982033 C 0.0 **** -0.24
4282 H 39.61619652486323 10.821828660857136 124.06092058962163 H 0.0 **** 0.06
4283 H 41.144842567590565 11.727759228741832 123.95352409589427 H 0.0 **** 0.06
4284 H 40.37039575791012 11.108940740489288 122.47397284943139 H 0.0 **** 0.06
4285 H 41.12149970010968 9.977492692945475 123.62470612973854 H 0.0 **** 0.06
4286 C 52.52596063548688 106.485711391925 120.62317993689884 C 0.0 **** -0.24
4287 H 52.03829556301517 106.99862345633981 121.45305388993472 H 0.0 **** 0.06
4288 H 51.76998421423491 106.10852695153723 119.93516452750765 H 0.0 **** 0.06
4289 H 53.115530184030234 105.65316715518522 121.00840143527397 H 0.0 **** 0.06
4290 H 53.179133327835615 107.18316512379994 120.10031729246168 H 0.0 **** 0.06
4291 C 102.61529788239278 26.816384098435265 29.664081759224786 C 0.0 **** -0.24
4292 H 102.60766665343229 27.716028483670755 29.049811966079204 H 0.0 **** 0.06
4293 H 101.60112392198533 26.59402361856428 29.994716995913166 H 0.0 **** 0.06
4294 H 103.25515218898909 26.974562337792918 30.53207415790618 H 0.0 **** 0.06
4295 H 102.99811760722338 25.980025120973494 29.077868904161733 H 0.0 **** 0.06
4296 C 43.31327130397256 108.07342233917174 54.21112754015559 C 0.0 **** -0.24
4297 H 43.77489694830388 108.79652193558522 53.539018602750545 H 0.0 **** 0.06
4298 H 44.08532689656367 107.58612728143233 54.806583160037945 H 0.0 **** 0.06
4299 H 42.77844500535689 107.32464972426405 53.62737324718941 H 0.0 **** 0.06
4300 H 42.61333232018284 108.58654278030477 54.87243054864321 H 0.0 **** 0.06
4301 C 86.2101446425454 65.75879488135821 42.36322228894153 C 0.0 **** -0.24
4302 H 85.69650914787655 65.64152217536687 41.40934055417904 H 0.0 **** 0.06
4303 H 87.05717284696453 65.07401102799646 42.40575471312371 H 0.0 **** 0.06
4304 H 85.52068256508181 65.53562632299847 43.17752662607626 H 0.0 **** 0.06
4305 H 86.56595035729543 66.78506877374797 42.45891422149276 H 0.0 **** 0.06
4306 C 67.12139860474522 22.694357867411206 75.30746482516341 C 0.0 **** -0.24
4307 H 68.02094767679615 22.10658223533602 75.48907968210037 H 0.0 **** 0.06
4308 H 67.3738762754614 23.75456396330953 75.3147279318382 H 0.0 **** 0.06
4309 H 66.38970363526101 22.488833631493705 76.0895549928793 H 0.0 **** 0.06
4310 H 66.70175934446097 22.42700530321556 74.33764617933386 H 0.0 **** 0.06
4311 C 41.863543941195644 94.60954235674228 116.46178954261794 C 0.0 **** -0.24
4312 H 40.88489646321548 94.46764938251988 116.00297670453081 H 0.0 **** 0.06
4313 H 42.482581701436544 93.73114138846796 116.27570147663623 H 0.0 **** 0.06
4314 H 41.74448620571192 94.74928876755666 117.53623586761319 H 0.0 **** 0.06
4315 H 42.342749793470574 95.48878863132575 116.03237436635193 H 0.0 **** 0.06
4316 C 24.952246621487006 114.34015781610715 36.304587792809116 C 0.0 **** -0.24
4317 H 24.888365799584903 114.98573466367026 35.42972872926083 H 0.0 **** 0.06
4318 H 24.965237521879203 113.29709650028514 35.9870408165084 H 0.0 **** 0.06
4319 H 24.08988950592709 114.5143511877933 36.94847723058081 H 0.0 **** 0.06
4320 H 25.867117643085862 114.56414757671175 36.85479993744309 H 0.0 **** 0.06
4321 C 44.495912373837626 115.10306439848111 61.82285316746956 C 0.0 **** -0.24
4322 H 45.497571132695555 114.70181259253083 61.97335355140126 H 0.0 **** 0.06
4323 H 43.84124940299759 114.31672274791453 61.44527008464311 H 0.0 **** 0.06
4324 H 44.53683323346635 115.9194578356009 61.10120990993474 H 0.0 **** 0.06
4325 H 44.10675846621481 115.47585303141608 62.77060662048106 H 0.0 **** 0.06
4326 C 72.48408861416303 2.6560418875870937 5.459585082399045 C 0.0 **** -0.24
4327 H 73.46438931873055 3.055707789651308 5.199753580248881 H 0.0 **** 0.06
4328 H 71.72684615847226 3.427336079690633 5.31408280216489 H 0.0 **** 0.06
4329 H 72.48565702762187 2.3395083511829284 6.502318861759392 H 0.0 **** 0.06
4330 H 72.25900554308957 1.8008533078867117 4.82108457605014 H 0.0 **** 0.06
4331 C 83.46971952499773 24.144405140262336 6.94895425137258 C 0.0 **** -0.24
4332 H 83.50505767227591 23.852608844371474 7.998567915088234 H 0.0 **** 0.06
4333 H 83.7047991593458 25.20508005733018 6.857564853654381 H 0.0 **** 0.06
4334 H 82.47037814575978 23.957704709404254 6.553131592537802 H 0.0 **** 0.06
4335 H 84.19763471480876 23.560524914408262 6.385510311794693 H 0.0 **** 0.06
4336 C 48.11719385986379 53.27001807357357 107.20454074157783 C 0.0 **** -0.24
4337 H 48.41558482060901 52.314899633639016 106.7722916135694 H 0.0 **** 0.06
4338 H 48.1312510444061 54.038651185093784 106.43143125763908 H 0.0 **** 0.06
4339 H 48.80969629643107 53.54029164236937 108.00065203352867 H 0.0 **** 0.06
4340 H 47.11007255166254 53.183816951574215 107.61310502475988 H 0.0 **** 0.06
4341 C 93.78255964187127 19.480581266587734 86.59260994911313 C 0.0 **** -0.24
4342 H 94.32964295658618 19.65920409227749 85.66685542080329 H 0.0 **** 0.06
4343 H 93.58542992136309 18.4130767540114 86.69630061237275 H 0.0 **** 0.06
4344 H 92.83801724107404 20.024227327597842 86.56758330079185 H 0.0 **** 0.06
4345 H 94.37827247076385 19.824222525221003 87.4386073773661 H 0.0 **** 0.06
4346 C 110.9972516694873 58.20522928663645 66.07855310917162 C 0.0 **** -0.24
4347 H 112.01102886973281 58.53170869849488 66.3105847722602 H 0.0 **** 0.06
4348 H 111.00594784858264 57.14405533387955 65.82826934352777 H 0.0 **** 0.06
4349 H 110.61676707324435 58.7760975554842 65.23193007461809 H 0.0 **** 0.06
4350 H 110.3563119718295 58.36913926625242 66.94480395469917 H 0.0 **** 0.06
4351 C 41.106825125467225 99.73748604443944 25.167726966323045 C 0.0 **** -0.24
4352 H 41.30394754360202 98.83500335633113 25.74658659829778 H 0.0 **** 0.06
4353 H 40.114312626163525 99.67391277912259 24.722887639302336 H 0.0 **** 0.06
4354 H 41.854151085518254 99.83363591871364 24.37949040957014 H 0.0 **** 0.06
4355 H 41.15684943450887 100.60648343968802 25.82445967331313 H 0.0 **** 0.06
4356 C 118.92619843677456 23.39501701115821 81.71468120868234 C 0.0 **** -0.24
4357 H 118.27162744282666 23.94140888284646 81.03557116707688 H 0.0 **** 0.06
4358 H 118.32828375038899 22.724123693134032 82.33226759090941 H 0.0 **** 0.06
4359 H 119.45789602119201 24.099972727084676 82.35327951012398 H 0.0 **** 0.06
4360 H 119.64507952834856 22.814159394386188 81.1365107045796 H 0.0 **** 0.06
4361 C 24.53217180044001 34.786785895674626 94.20239672289017 C 0.0 **** -0.24
4362 H 24.999842833945053 34.288572042071365 93.35337820159228 H 0.0 **** 0.06
4363 H 25.291430157111307 35.013016416642614 94.95235693053601 H 0.0 **** 0.06
4364 H 23.775419953208115 34.13295437879316 94.63582571639355 H 0.0 **** 0.06
4365 H 24.064969661207186 35.71287351991009 93.86775576666676 H 0.0 **** 0.06
4366 C 5.313730473928132 0.8623483263411913 107.52959287007727 C 0.0 **** -0.24
4367 H 5.926884939071947 -0.02080457304407446 107.70923493050014 H 0.0 **** 0.06
4368 H 5.7300029618417945 1.4316812823677765 106.69931650811625 H 0.0 **** 0.06
4369 H 5.2994020714452645 1.4828178085364243 108.42545056337667 H 0.0 **** 0.06
4370 H 4.29635984061947 0.5538655251251043 107.28506032685922 H 0.0 **** 0.06
4371 C 117.01192953091208 42.333406945554664 114.27952039101099 C 0.0 **** -0.24
4372 H 116.7851763438897 43.36945546231722 114.53301639144786 H 0.0 **** 0.06
4373 H 117.01668764534071 42.21643605581429 113.19568927222998 H 0.0 **** 0.06
4374 H 116.25466162314257 41.68020677033466 114.71271842544301 H 0.0 **** 0.06
4375 H 117.99151668442141 42.06868402179823 114.67854486594807 H 0.0 **** 0.06
4376 C 30.363813426159027 83.47834139671284 1.133693805554529 C 0.0 **** -0.24
4377 H 31.294170676103136 83.24647319741592 0.615160066844112 H 0.0 **** 0.06
4378 H 29.89624501409881 82.55280098275108 1.4720863554628352 H 0.0 **** 0.06
4379 H 29.689125025786126 83.99939184013311 0.45378811254595064 H 0.0 **** 0.06
4380 H 30.576227137736495 84.11357509319384 1.9930541615965183 H 0.0 **** 0.06
4381 C 46.58760047534446 80.13442680036044 57.776777642075416 C 0.0 **** -0.24
4382 H 47.52358233290852 80.63796276104298 58.021071050380925 H 0.0 **** 0.06
4383 H 46.73957351258093 79.48717457981385 56.912385066229746 H 0.0 **** 0.06
4384 H 45.825840964775296 80.87861618206185 57.54389283895168 H 0.0 **** 0.06
4385 H 46.2640995930866 79.53584670616911 58.62798485834472 H 0.0 **** 0.06
4386 C 23.814825942033792 116.06319458536453 123.3430261384062 C 0.0 **** -0.24
4387 H 22.790796293458897 116.37700776060674 123.54262126697937 H 0.0 **** 0.06
4388 H 24.379505556725604 116.90367642498734 122.93821263433443 H 0.0 **** 0.06
4389 H 23.810078045730478 115.24686562042898 122.62002043865493 H 0.0 **** 0.06
4390 H 24.279153281303792 115.72547147167124 124.2688235543885 H 0.0 **** 0.06
4391 C 7.883699077081225 112.16912006743854 107.64567271566995 C 0.0 **** -0.24
4392 H 7.507777753781728 111.91839174021027 106.65399174609419 H 0.0 **** 0.06
4393 H 8.38043995703272 113.13901707911617 107.61193819153175 H 0.0 **** 0.06
4394 H 8.594246341588743 111.40776003662273 107.968022237752 H 0.0 **** 0.06
4395 H 7.051188170011763 112.21002810247205 108.34894925872709 H 0.0 **** 0.06
4396 C 75.23533219290503 27.5845908205888 43.50120802401241 C 0.0 **** -0.24
4397 H 76.11038858168794 27.36681974666803 42.88835990533242 H 0.0 **** 0.06
4398 H 74.77716439816392 26.648846320221864 43.8245256920313 H 0.0 **** 0.06
4399 H 74.51611070869272 28.158078120038113 42.91650512681781 H 0.0 **** 0.06
4400 H 75.53740528243694 28.162390213847445 44.37445907238539 H 0.0 **** 0.06
4401 C 10.461735623071547 74.04843765868499 83.12995954486057 C 0.0 **** -0.24
4402 H 10.107576882530964 73.13287228587154 82.65499701508399 H 0.0 **** 0.06
4403 H 10.332480014201337 73.97075956128566 84.20989234634682 H 0.0 **** 0.06
4404 H 9.889133902731487 74.8964425851823 82.75468816827724 H 0.0 **** 0.06
4405 H 11.516923779276965 74.19193830069322 82.8997179976234 H 0.0 **** 0.06
4406 C 57.82900889755928 56.153028227147146 42.43939281882291 C 0.0 **** -0.24
4407 H 56.78712661795059 55.89369603808311 42.249322092728676 H 0.0 **** 0.06
4408 H 58.374939091169864 56.17527985494151 41.49619464304277 H 0.0 **** 0.06
4409 H 58.274305956096896 55.40790604960388 43.09921189838761 H 0.0 **** 0.06
4410 H 57.87864402336547 57.13365266267543 42.91215782447675 H 0.0 **** 0.06
4411 C 33.67918061633398 34.903743271669754 60.20162808135018 C 0.0 **** -0.24
4412 H 34.356508173606215 35.59125957291705 60.70730225716375 H 0.0 **** 0.06
4413 H 33.45328279748193 35.283024056625614 59.20530838450071 H 0.0 **** 0.06
4414 H 32.75613390331483 34.81500468593842 60.77548171668337 H 0.0 **** 0.06
4415 H 34.15038836605865 33.92378942851969 60.11953373509556 H 0.0 **** 0.06
4416 C 85.5055947534419 27.596559823053667 3.137005895439742 C 0.0 **** -0.24
4417 H 85.19324044422669 26.666294605125643 2.660971027529513 H 0.0 **** 0.06
4418 H 86.24085146660141 27.3780716816417 3.9117821421793053 H 0.0 **** 0.06
4419 H 84.63977085848963 28.084632687248927 3.5825611413673215 H 0.0 **** 0.06
4420 H 85.95010875060532 28.254540362144496 2.389680214674371 H 0.0 **** 0.06
4421 C 13.770909341467757 56.92907067940662 101.35770579690319 C 0.0 **** -0.24
4422 H 12.773107154360162 56.924068831382826 101.79779732032861 H 0.0 **** 0.06
4423 H 14.318590058089086 56.04715367732045 101.69143322301099 H 0.0 **** 0.06
4424 H 14.302170436544628 57.826698588594695 101.67170645045675 H 0.0 **** 0.06
4425 H 13.687771705153665 56.91621119127714 100.27050594107337 H 0.0 **** 0.06
4426 C 5.397358709724756 45.32003122390613 86.17056976899973 C 0.0 **** -0.24
4427 H 5.208978773068722 46.30686761015319 85.74763164224541 H 0.0 **** 0.06
4428 H 4.710287996817527 45.14388197266318 86.99931042838347 H 0.0 **** 0.06
4429 H 6.424617485995498 45.27067891937364 86.53352504863089 H 0.0 **** 0.06
4430 H 5.246390821637718 44.56075617873833 85.40382485668091 H 0.0 **** 0.06
4431 C 65.41663253766589 65.9809690713102 80.86308257713912 C 0.0 **** -0.24
4432 H 65.85129937903665 65.57237435819081 81.7753357239466 H 0.0 **** 0.06
4433 H 65.03366748182464 65.16707885772638 80.24804912055012 H 0.0 **** 0.06
4434 H 66.18054280240531 66.52638851889964 80.31028300979511 H 0.0 **** 0.06
4435 H 64.60147402691949 66.65756937892496 81.12080212374755 H 0.0 **** 0.06
4436 C 84.19799834069505 29.159547981285854 33.07851671627219 C 0.0 **** -0.24
4437 H 83.8740998669555 28.20494474013836 32.664284752623956 H 0.0 **** 0.06
4438 H 84.91708743477417 29.623814617738844 32.402972402509135 H 0.0 **** 0.06
4439 H 84.66570720692317 28.993403032556643 34.04971291613984 H 0.0 **** 0.06
4440 H 83.33568825109067 29.81489896632739 33.19863778078738 H 0.0 **** 0.06
4441 C 112.39966659044273 85.85472555003832 70.47660800394686 C 0.0 **** -0.24
4442 H 111.88918027421875 85.15651457218621 69.81275117008569 H 0.0 **** 0.06
4443 H 111.753818045748 86.08739302842957 71.32335839000802 H 0.0 **** 0.06
4444 H 112.63171079754343 86.76981377408453 69.93190650218689 H 0.0 **** 0.06
4445 H 113.32336558327944 85.40225254823844 70.83814097632364 H 0.0 **** 0.06
4446 C 83.251437226982 69.52044844869869 70.35927283868907 C 0.0 **** -0.24
4447 H 84.16655125576027 68.98583668998378 70.10740737350949 H 0.0 **** 0.06
4448 H 83.36615286996253 69.99971410591243 71.3315461859517 H 0.0 **** 0.06
4449 H 82.41910332166367 68.81715299849202 70.3969626990253 H 0.0 **** 0.06
4450 H 83.05309886968175 70.27863674516774 69.60146604979728 H 0.0 **** 0.06
4451 C 33.815497325366 58.388511478132415 76.49083640326276 C 0.0 **** -0.24
4452 H 34.81876624074573 58.199894935914045 76.87386777264206 H 0.0 **** 0.06
4453 H 33.66514412514311 57.819869387808666 75.57290948931731 H 0.0 **** 0.06
4454 H 33.701077111784045 59.4528759838569 76.28291819996636 H 0.0 **** 0.06
4455 H 33.080083382834935 58.082488377182784 77.23422650866465 H 0.0 **** 0.06
4456 C 92.03559375206169 25.27278467397113 104.5603818133933 C 0.0 **** -0.24
4457 H 92.82685837027937 24.610951382412367 104.91186677997777 H 0.0 **** 0.06
4458 H 91.55857859219155 24.83373955532406 103.68339794926283 H 0.0 **** 0.06
4459 H 92.4626098856557 26.240226197016767 104.29571628748282 H 0.0 **** 0.06
4460 H 91.29543286940385 25.405179439572493 105.34971331372856 H 0.0 **** 0.06
4461 C 24.887327134438493 33.643658865507575 106.01879634949073 C 0.0 **** -0.24
4462 H 25.95140386629201 33.63391769742688 106.25221112529442 H 0.0 **** 0.06
4463 H 24.376701690618802 32.88700796303473 106.61512412505112 H 0.0 **** 0.06
4464 H 24.74510144536154 33.42805109547183 104.95941403022742 H 0.0 **** 0.06
4465 H 24.47394006650599 34.62635750379437 106.24675083918261 H 0.0 **** 0.06
4466 C 49.928993067775025 32.92585876105328 20.133648554765188 C 0.0 **** -0.24
4467 H 49.98156883228273 33.49841603495827 21.06061390357803 H 0.0 **** 0.06
4468 H 49.51081819846803 33.55131167040784 19.344983770897443 H 0.0 **** 0.06
4469 H 49.294646501145735 32.052819736461316 20.280542729003173 H 0.0 **** 0.06
4470 H 50.931062116178396 32.60364825074498 19.849821602696267 H 0.0 **** 0.06
4471 C 8.597168031874844 123.22423302737823 22.133844501896128 C 0.0 **** -0.24
4472 H 9.288549630017144 123.63578568379029 21.398544834422296 H 0.0 **** 0.06
4473 H 8.611318350350643 122.13549501320173 22.076861615680336 H 0.0 **** 0.06
4474 H 7.5899077435716436 123.58607670760455 21.92743575671316 H 0.0 **** 0.06
4475 H 8.89832505453927 123.54032826476191 23.13286101066854 H 0.0 **** 0.06
4476 C 15.847491273228627 4.966728512830624 1.0772824848000369 C 0.0 **** -0.24
4477 H 16.736889415776716 4.657837786343283 1.6266195180991332 H 0.0 **** 0.06
4478 H 16.026297036134736 4.858880169560692 0.007163343671891198 H 0.0 **** 0.06
4479 H 15.62329606847021 6.008046583566685 1.3056743001556015 H 0.0 **** 0.06
4480 H 15.004564782472016 4.340369788708646 1.3704862115351801 H 0.0 **** 0.06
4481 C 18.742906296342756 32.46752081389829 88.38632405658808 C 0.0 **** -0.24
4482 H 18.915552785787494 33.45717051841582 87.96393758257958 H 0.0 **** 0.06
4483 H 18.84344935884933 32.51310700954353 89.47119305946029 H 0.0 **** 0.06
4484 H 19.474879936094407 31.767596781945123 87.98241975403073 H 0.0 **** 0.06
4485 H 17.73863439754884 32.13197733821914 88.12813571302587 H 0.0 **** 0.06
4486 C 96.50321901124613 113.05083921047853 38.34475262267114 C 0.0 **** -0.24
4487 H 96.31665659052058 113.88232480806207 37.66465343596377 H 0.0 **** 0.06
4488 H 97.5705702500062 112.9904517673389 38.55991873238332 H 0.0 **** 0.06
4489 H 96.17234026186449 112.12115660173413 37.880973311943876 H 0.0 **** 0.06
4490 H 95.95319294599827 113.20988678331238 39.27180000982759 H 0.0 **** 0.06
4491 C 69.95849375254565 113.24925749245648 114.03085651743677 C 0.0 **** -0.24
4492 H 70.94487741652071 113.69247201372596 113.8934015340048 H 0.0 **** 0.06
4493 H 69.47392070399158 113.70560807383086 114.89520073403654 H 0.0 **** 0.06
4494 H 70.06195338397046 112.17753113779483 114.19546618009021 H 0.0 **** 0.06
4495 H 69.35511973780797 113.42434682019058 113.14071092391872 H 0.0 **** 0.06
4496 C 25.119013541600417 104.33392223484759 9.208262727297466 C 0.0 **** -0.24
4497 H 25.28890939936356 103.26014000583552 9.127852268346714 H 0.0 **** 0.06
4498 H 26.044941725766968 104.86552449967712 8.987365078978542 H 0.0 **** 0.06
4499 H 24.793553679518787 104.57428449527346 10.220695244552616 H 0.0 **** 0.06
4500 H 24.34886285783199 104.6344786961665 8.49774147084537 H 0.0 **** 0.06
4501 C 82.89744576024741 114.50700387548153 21.370963144710117 C 0.0 **** -0.24
4502 H 82.18200105248324 115.21649451307158 21.78805626558028 H 0.0 **** 0.06
4503 H 83.815302272438 115.03088424730319 21.10534414705205 H 0.0 **** 0.06
4504 H 82.47143590667585 114.04486583518513 20.480214715495094 H 0.0 **** 0.06
4505 H 83.11827105304016 113.73722515086754 22.10979300569062 H 0.0 **** 0.06
4506 C 98.4818898272066 76.70299271048094 123.88099047632659 C 0.0 **** -0.24
4507 H 98.10316559403716 76.3145878761299 124.82594777715903 H 0.0 **** 0.06
4508 H 99.12868304890114 77.55961017086878 124.0736736986311 H 0.0 **** 0.06
4509 H 97.64639661898394 77.01142936003527 123.25373728959619 H 0.0 **** 0.06
4510 H 99.0512519059053 75.92556350584715 123.37140106303578 H 0.0 **** 0.06
4511 C 35.23768737325034 81.77438937285271 1.1793358039383577 C 0.0 **** -0.24
4512 H 36.21901530688709 81.54386389915513 1.5928320522044999 H 0.0 **** 0.06
4513 H 35.353422897656884 82.41959136066816 0.30820526589880615 H 0.0 **** 0.06
4514 H 34.636805610575465 82.28519983421097 1.9326428858057625 H 0.0 **** 0.06
4515 H 34.74108692450332 80.84977552456635 0.8846937405989763 H 0.0 **** 0.06
4516 C 69.975137852438 74.98577763215107 26.99080120175114 C 0.0 **** -0.24
4517 H 70.72168000669996 75.01619090929739 27.784440006308955 H 0.0 **** 0.06
4518 H 69.6417584774955 75.99830398888636 26.76674497389098 H 0.0 **** 0.06
4519 H 69.12435393191654 74.38586547582943 27.315617908539366 H 0.0 **** 0.06
4520 H 70.41268656980071 74.5406361463549 26.09763725049112 H 0.0 **** 0.06
4521 C 45.43254888150264 95.98050295575882 90.54294320825556 C 0.0 **** -0.24
4522 H 45.43709374804152 95.40527572350706 91.46895816443069 H 0.0 **** 0.06
4523 H 44.585457362472226 96.6667759893045 90.54539522410175 H 0.0 **** 0.06
4524 H 45.34927622194439 95.30178090319782 89.69456905403976 H 0.0 **** 0.06
4525 H 46.360233194845364 96.54832035902469 90.4644322147243 H 0.0 **** 0.06
4526 C 57.311205480523995 30.75552221265965 34.01674572337015 C 0.0 **** -0.24
4527 H 57.65492132142509 30.239221435510473 34.913133274307626 H 0.0 **** 0.06
4528 H 58.12058514475598 30.795936254811195 33.287969380781874 H 0.0 **** 0.06
4529 H 57.00463908746087 31.768148947147147 34.27645090768499 H 0.0 **** 0.06
4530 H 56.46428857222622 30.21766281210067 33.59020177007548 H 0.0 **** 0.06
4531 C 15.346003492413615 2.530104629776565 12.492133564946755 C 0.0 **** -0.24
4532 H 15.935753729484304 1.637809159907981 12.700956774020653 H 0.0 **** 0.06
4533 H 15.794475764223648 3.387755777836407 12.99370793199887 H 0.0 **** 0.06
4534 H 14.328800695749806 2.387481627203039 12.855562793515105 H 0.0 **** 0.06
4535 H 15.325203056720625 2.7074944947225283 11.416084785964358 H 0.0 **** 0.06
4536 C 72.93429217750145 74.57950565727617 5.7884560725582475 C 0.0 **** -0.24
4537 H 72.08655064190535 74.82310554625637 6.429719006275718 H 0.0 **** 0.06
4538 H 72.91469250084668 73.51537878339826 5.549737318231664 H 0.0 **** 0.06
4539 H 73.8625709059348 74.81992091033543 6.30623284706671 H 0.0 **** 0.06
4540 H 72.8706049798908 75.16004488500873 4.867628237712637 H 0.0 **** 0.06
4541 C 113.23634177491681 63.91134536295738 39.296080162297244 C 0.0 **** -0.24
4542 H 113.78518515707196 63.35079724993378 38.5392165869136 H 0.0 **** 0.06
4543 H 113.88484556653395 64.09566607156049 40.152405684987286 H 0.0 **** 0.06
4544 H 112.36725492880726 63.33605598027452 39.61495141988098 H 0.0 **** 0.06
4545 H 112.90842896973118 64.86257580995363 38.87685404582476 H 0.0 **** 0.06
4546 C 31.83800332014698 70.42923282257436 119.02642790211243 C 0.0 **** -0.24
4547 H 32.440691137316435 71.25347647837128 119.40879361202886 H 0.0 **** 0.06
4548 H 31.297158636424683 70.75610795467054 118.13876335927628 H 0.0 **** 0.06
4549 H 31.12718132078129 70.11446098750378 119.7903149826484 H 0.0 **** 0.06
4550 H 32.48865293030167 69.59331553259682 118.76926242350626 H 0.0 **** 0.06
4551 C 48.292567490012914 120.40663600235544 19.404888013899324 C 0.0 **** -0.24
4552 H 48.96454159847224 119.72211586030745 18.887749105947762 H 0.0 **** 0.06
4553 H 47.57908283984642 120.82213524592612 18.69209573756558 H 0.0 **** 0.06
4554 H 48.87132765406491 121.2151940076746 19.85228199449878 H 0.0 **** 0.06
4555 H 47.754732929122895 119.86862212743922 20.18589620498946 H 0.0 **** 0.06
4556 C 60.38868056581413 10.860274815403216 61.98450052051018 C 0.0 **** -0.24
4557 H 60.51111652765405 10.242055524502973 62.874291560123055 H 0.0 **** 0.06
4558 H 60.49828576034173 11.910404093175487 62.25515325907358 H 0.0 **** 0.06
4559 H 59.39860648329997 10.693836335907065 61.56103481210546 H 0.0 **** 0.06
4560 H 61.14805191226202 10.592208285820902 61.249862374151675 H 0.0 **** 0.06
4561 C 65.04851076498971 51.72220651797916 94.21230220621533 C 0.0 **** -0.24
4562 H 64.31406112163975 51.8139650066487 93.4117343810774 H 0.0 **** 0.06
4563 H 64.74315808222573 50.929284477155846 94.89538866383839 H 0.0 **** 0.06
4564 H 65.11337937844769 52.665224550542305 94.7552485847159 H 0.0 **** 0.06
4565 H 66.02185034949034 51.47947357332903 93.7855382248215 H 0.0 **** 0.06
4566 C 8.05454135816069 18.424847346699327 120.34806166910172 C 0.0 **** -0.24
4567 H 7.112004238338358 18.7800095474343 120.76367356771132 H 0.0 **** 0.06
4568 H 8.86423878311048 19.076876565779347 120.67812343580363 H 0.0 **** 0.06
4569 H 7.999170071157295 18.43569011268147 119.25979234099486 H 0.0 **** 0.06
4570 H 8.242679306226478 17.408211528735528 120.69240074853802 H 0.0 **** 0.06
4571 C 84.44426311902292 74.83214852168962 71.75760254953687 C 0.0 **** -0.24
4572 H 83.8548766069188 74.62243849166859 70.86521141946025 H 0.0 **** 0.06
4573 H 84.17796308449294 74.12318238462743 72.54247266226542 H 0.0 **** 0.06
4574 H 84.2382526784391 75.84627227457057 72.09888011888972 H 0.0 **** 0.06
4575 H 85.50473133765465 74.73471531816776 71.52310588148856 H 0.0 **** 0.06
4576 C 9.899185966835333 45.038390977542235 52.34897041298626 C 0.0 **** -0.24
4577 H 10.401863031460202 45.022141981865275 51.382277384884105 H 0.0 **** 0.06
4578 H 9.883610921126717 46.058071252154036 52.734123986234465 H 0.0 **** 0.06
4579 H 10.434581222796961 44.394643965225555 53.046795180781714 H 0.0 **** 0.06
4580 H 8.87767153097101 44.67774295323693 52.233009608658676 H 0.0 **** 0.06
4581 C 95.66643708022173 47.0859422804524 13.742618545170785 C 0.0 **** -0.24
4582 H 95.55612398518488 47.00712257860653 14.823652367238765 H 0.0 **** 0.06
4583 H 94.77198452926149 47.54520144130231 13.31951398942283 H 0.0 **** 0.06
4584 H 95.79950029511406 46.091031081724225 13.317296768940622 H 0.0 **** 0.06
4585 H 96.53621998793855 47.700916273960445 13.509759290123114 H 0.0 **** 0.06
4586 C 39.99735578069607 58.638467062194934 90.07404537173208 C 0.0 **** -0.24
4587 H 40.801162811686225 58.81111876520174 89.35891719326872 H 0.0 **** 0.06
4588 H 39.04537572395839 58.59106773386952 89.54453236442787 H 0.0 **** 0.06
4589 H 39.971628917336886 59.45516955867828 90.79634789603753 H 0.0 **** 0.06
4590 H 40.17035523008522 57.697795407368346 90.59514194678886 H 0.0 **** 0.06
4591 C 27.731029019002676 72.47550074401107 40.252206268364255 C 0.0 **** -0.24
4592 H 28.050507213047183 72.81370624767322 39.26634854944529 H 0.0 **** 0.06
4593 H 27.73618565788786 71.38642459435647 40.28112329762029 H 0.0 **** 0.06
4594 H 26.72298360336822 72.8406573500576 40.45133400661769 H 0.0 **** 0.06
4595 H 28.414122428151245 72.86350120597453 41.008102932241705 H 0.0 **** 0.06
4596 C 38.170822408107426 19.372803091590868 70.83999576129705 C 0.0 **** -0.24
4597 H 39.05931057266838 19.992964179975047 70.72239602099029 H 0.0 **** 0.06
4598 H 38.27674483262666 18.46869597198213 70.24064073287738 H 0.0 **** 0.06
4599 H 37.29367341804982 19.928208749697603 70.50808778113375 H 0.0 **** 0.06
4600 H 38.053850986553016 19.10224592763302 71.88917696164512 H 0.0 **** 0.06
4601 C 101.03777367314567 86.59104207463463 72.43775708214389 C 0.0 **** -0.24
4602 H 100.13527430522092 86.5710662749783 71.82669769398296 H 0.0 **** 0.06
4603 H 101.87922128301804 86.21703250021972 71.85397159207747 H 0.0 **** 0.06
4604 H 100.89596447057835 85.96046069085753 73.3155053262193 H 0.0 **** 0.06
4605 H 101.24029093048466 87.61338141593274 72.75389413028674 H 0.0 **** 0.06
4606 C 75.4024249899671 12.39867156103358 44.07598431817203 C 0.0 **** -0.24
4607 H 75.99789740087274 13.245703316231811 44.41786962830511 H 0.0 **** 0.06
4608 H 74.62888644285388 12.74943597365234 43.3933606217586 H 0.0 **** 0.06
4609 H 74.93830779165248 11.912365541477499 44.93384641303257 H 0.0 **** 0.06
4610 H 76.04778787279673 11.686949279689031 43.56021605427061 H 0.0 **** 0.06
4611 C 51.221825901111046 117.63306874253061 34.83787735358794 C 0.0 **** -0.24
4612 H 50.217116165534904 117.44964515801254 35.21849374186479 H 0.0 **** 0.06
4613 H 51.944849369826116 117.50144317220608 35.64364999354399 H 0.0 **** 0.06
4614 H 51.28401441103102 118.6523913447048 34.455967988393866 H 0.0 **** 0.06
4615 H 51.43995278937449 116.93018418655438 34.034878238290275 H 0.0 **** 0.06
4616 C 115.80544344303897 104.23853537040547 73.2251763326703 C 0.0 **** -0.24
4617 H 116.72559570911153 104.77336490604449 72.9903106892919 H 0.0 **** 0.06
4618 H 114.96701990838687 104.72379278178212 72.7243360478449 H 0.0 **** 0.06
4619 H 115.64358426075844 104.25179025518162 74.3021162180774 H 0.0 **** 0.06
4620 H 115.88673285184848 103.20724272006028 72.8820827640874 H 0.0 **** 0.06
4621 C 31.238577542038655 54.77423612571198 10.408217327039779 C 0.0 **** -0.24
4622 H 30.691301119410923 55.64284798090051 10.774111652252522 H 0.0 **** 0.06
4623 H 32.19056158053016 55.09676255430048 9.984354259743249 H 0.0 **** 0.06
4624 H 30.650166686892078 54.27043382335046 9.641096974673243 H 0.0 **** 0.06
4625 H 31.422721539094994 54.087221091845606 11.234611347734415 H 0.0 **** 0.06
4626 C 2.0947191198875004 54.7711669010494 116.03174462968758 C 0.0 **** -0.24
4627 H 1.7021294953277675 55.13782846304531 116.98024101798933 H 0.0 **** 0.06
4628 H 1.8600019748947716 55.48594798781319 115.24141007862735 H 0.0 **** 0.06
4629 H 1.6407238553861845 53.80842447429731 115.79728777078671 H 0.0 **** 0.06
4630 H 3.1763963376924664 54.65457265473795 116.10738821321542 H 0.0 **** 0.06
4631 C 87.82054150707403 5.922790578168701 4.788783419110388 C 0.0 **** -0.24
4632 H 87.88966001591942 5.489457834710095 3.790218870797446 H 0.0 **** 0.06
4633 H 88.51339538164409 6.760546084265741 4.868745515131366 H 0.0 **** 0.06
4634 H 88.07579495581409 5.166971863402807 5.531055886533068 H 0.0 **** 0.06
4635 H 86.80394452909019 6.273830966853495 4.9622016004693705 H 0.0 **** 0.06
4636 C 44.588709354397906 115.0412251896331 105.26894065356359 C 0.0 **** -0.24
4637 H 44.120471764202705 114.07809379367114 105.47215527814845 H 0.0 **** 0.06
4638 H 45.63500500640134 114.88799769531383 105.00614718673282 H 0.0 **** 0.06
4639 H 44.52482951607227 115.67080672663933 106.15600554441076 H 0.0 **** 0.06
4640 H 44.07286988305214 115.52753442980985 104.44130870590234 H 0.0 **** 0.06
4641 C 28.100962622500504 7.400446396506453 32.94410519691556 C 0.0 **** -0.24
4642 H 27.764814385543247 7.521793839204534 33.97465308825272 H 0.0 **** 0.06
4643 H 28.865551158993128 6.624770538732051 32.90131453848046 H 0.0 **** 0.06
4644 H 28.517000226538585 8.341455865204324 32.58567453005777 H 0.0 **** 0.06
4645 H 27.255852518421023 7.1144872077772305 32.318395256968756 H 0.0 **** 0.06
4646 C 106.6346765338908 76.6619158564589 104.89774461254873 C 0.0 **** -0.24
4647 H 106.74538035516366 76.39543292358384 105.94895545190641 H 0.0 **** 0.06
4648 H 105.9390252617892 77.49571298829962 104.80519010519262 H 0.0 **** 0.06
4649 H 106.25032685472945 75.8038946942776 104.34474117301787 H 0.0 **** 0.06
4650 H 107.60475952417346 76.94973369994933 104.49228117568859 H 0.0 **** 0.06
4651 C 36.24406732323249 1.955765488904433 68.80972059813462 C 0.0 **** -0.24
4652 H 36.87660123313892 2.6208935820864525 68.22122317399283 H 0.0 **** 0.06
4653 H 35.20144770320917 2.1000124654178336 68.5240671059272 H 0.0 **** 0.06
4654 H 36.365656465432046 2.183267272434506 69.8692227353585 H 0.0 **** 0.06
4655 H 36.53194899067905 0.9219826258084538 68.6241465348798 H 0.0 **** 0.06
4656 C 58.985937691705345 22.762519030305732 73.37131683863292 C 0.0 **** -0.24
4657 H 59.88719220264001 23.370145044768492 73.4505608993896 H 0.0 **** 0.06
4658 H 58.569366616776236 22.859489424606927 72.36817026404654 H 0.0 **** 0.06
4659 H 58.252988422908274 23.102338628468857 74.10422188732997 H 0.0 **** 0.06
4660 H 59.23296196317558 21.71809355136419 73.5629914618072 H 0.0 **** 0.06
4661 C 67.76507216994001 119.19147096380524 117.77911233123834 C 0.0 **** -0.24
4662 H 67.24880674191496 119.92982309019442 117.16629604067637 H 0.0 **** 0.06
4663 H 67.99636483459842 119.62542461079815 118.7527065630137 H 0.0 **** 0.06
4664 H 68.68916443866266 118.89225670263207 117.28564606904214 H 0.0 **** 0.06
4665 H 67.1249329226005 118.31992278729084 117.91305703963783 H 0.0 **** 0.06
4666 C 83.57378841359326 28.690287166785836 12.277266350892717 C 0.0 **** -0.24
4667 H 84.48040229069477 28.092821993289675 12.182988382916903 H 0.0 **** 0.06
4668 H 83.80097954747163 29.733583406801728 12.054973917176937 H 0.0 **** 0.06
4669 H 83.19061846728101 28.61109898774839 13.294717451450765 H 0.0 **** 0.06
4670 H 82.82331307624202 28.325022727301075 11.576112749938602 H 0.0 **** 0.06
4671 C 111.09192983137552 7.609741929584885 30.25456527523758 C 0.0 **** -0.24
4672 H 111.54193887424213 7.780427583467571 29.27739032124245 H 0.0 **** 0.06
4673 H 111.38302828651652 8.411160519943138 30.933685033067718 H 0.0 **** 0.06
4674 H 111.43482987198513 6.653904168033563 30.650429434693507 H 0.0 **** 0.06
4675 H 110.00573863994089 7.593063036541736 30.156507623000323 H 0.0 **** 0.06
4676 C 2.6182442767974123 5.197564498754218 29.95122411685052 C 0.0 **** -0.24
4677 H 1.6490305197819737 4.709298048161713 29.857042400991595 H 0.0 **** 0.06
4678 H 2.472469890363712 6.255816209321438 30.1674227314286 H 0.0 **** 0.06
4679 H 3.1719218627934396 5.09001827158221 29.018723916158415 H 0.0 **** 0.06
4680 H 3.1811015596327223 4.734651655301263 30.76232653507379 H 0.0 **** 0.06
4681 C 72.80567152979978 22.491654735166748 28.597554097735554 C 0.0 **** -0.24
4682 H 72.5118573856128 21.5527263003099 29.06686886797536 H 0.0 **** 0.06
4683 H 73.21591125929953 22.290333657343268 27.607126924948318 H 0.0 **** 0.06
4684 H 73.56011198069918 22.983655602277253 29.21112026267707 H 0.0 **** 0.06
4685 H 71.93365664222118 23.13911782003609 28.5053516164013 H 0.0 **** 0.06
4686 C 107.83962481003074 120.40064625687793 123.18462351315335 C 0.0 **** -0.24
4687 H 108.50598571606265 120.9853934570622 123.81841412364919 H 0.0 **** 0.06
4688 H 107.80328242722062 119.37274552913439 123.54703501038672 H 0.0 **** 0.06
4689 H 108.21128878471626 120.41188231749214 122.1592267930853 H 0.0 **** 0.06
4690 H 106.83958491257447 120.83215136049787 123.21235795825301 H 0.0 **** 0.06
4691 C 33.59819858441667 16.852293659617686 41.70433164620873 C 0.0 **** -0.24
4692 H 33.80442559429976 17.3277696412027 40.74525879400295 H 0.0 **** 0.06
4693 H 32.633583846487646 17.195014369542605 42.0790884265334 H 0.0 **** 0.06
4694 H 34.37990937691144 17.115685900708367 42.41602920140477 H 0.0 **** 0.06
4695 H 33.57407199750106 15.769739816529192 41.575099874398575 H 0.0 **** 0.06
4696 C 19.151919416789497 117.99355136322497 65.01842191132988 C 0.0 **** -0.24
4697 H 19.369340499811386 118.22945693303144 66.06042257030077 H 0.0 **** 0.06
4698 H 19.354513165670255 118.867759264173 64.39901649387446 H 0.0 **** 0.06
4699 H 18.10380611306624 117.71282321846753 64.92104198384226 H 0.0 **** 0.06
4700 H 19.782451894946547 117.1645958806627 64.69541825677811 H 0.0 **** 0.06
4701 C 17.855117406578472 48.3453862451172 105.5005344098526 C 0.0 **** -0.24
4702 H 17.50209326500908 47.717554628323825 106.31868972974752 H 0.0 **** 0.06
4703 H 18.937361851741628 48.45710935390744 105.57083836272574 H 0.0 **** 0.06
4704 H 17.383567523214083 49.326441067116775 105.565047186686 H 0.0 **** 0.06
4705 H 17.59839940253204 47.8799379518866 104.54891922470068 H 0.0 **** 0.06
4706 C 62.5846991577268 50.57657543647099 90.45010569283846 C 0.0 **** -0.24
4707 H 63.42547840119778 51.27008241941843 90.45211136535633 H 0.0 **** 0.06
4708 H 61.984509678953685 50.73700333386449 89.5540469735711 H 0.0 **** 0.06
4709 H 61.97132481451305 50.747400602060395 91.33497879189312 H 0.0 **** 0.06
4710 H 62.95852600087662 49.55277112218448 90.45926643883351 H 0.0 **** 0.06
4711 C 110.35211765207032 19.983805689386628 58.81174762365367 C 0.0 **** -0.24
4712 H 110.41792368032566 20.93113973787851 59.34633386076359 H 0.0 **** 0.06
4713 H 109.92409243779844 20.152230484429822 57.82387861571044 H 0.0 **** 0.06
4714 H 109.71764079904949 19.29525527276914 59.37032813218315 H 0.0 **** 0.06
4715 H 111.34946168372602 19.55507481402212 58.708256146745356 H 0.0 **** 0.06
4716 C 11.712090590498036 112.45138024605453 5.429093061739906 C 0.0 **** -0.24
4717 H 12.45561398456162 113.24640980887794 5.377376184123079 H 0.0 **** 0.06
4718 H 12.145402304252194 111.57961899230676 5.920357790796544 H 0.0 **** 0.06
4719 H 11.398132705077014 112.18223910968315 4.420002746379566 H 0.0 **** 0.06
4720 H 10.849422021731964 112.79711196584552 5.997667741615032 H 0.0 **** 0.06
4721 C 106.6413571731589 5.872104839069522 86.09369343347399 C 0.0 **** -0.24
4722 H 106.93606065624155 6.574535214142884 86.87281029780647 H 0.0 **** 0.06
4723 H 107.44126889668166 5.79028450675014 85.3566564841727 H 0.0 **** 0.06
4724 H 105.73375307154242 6.228340580120232 85.60774330375492 H 0.0 **** 0.06
4725 H 106.45605725687659 4.893557825148122 86.53798551430289 H 0.0 **** 0.06
4726 C 91.18079625429897 10.976573732071671 87.5251571709744 C 0.0 **** -0.24
4727 H 91.50889564339133 11.846575287324441 86.95728858220082 H 0.0 **** 0.06
4728 H 90.21876563534857 10.635165260268451 87.1423320434305 H 0.0 **** 0.06
4729 H 91.07777060341226 11.246352531214711 88.57645772268393 H 0.0 **** 0.06
4730 H 91.9163967427009 10.178408467898834 87.4248932873112 H 0.0 **** 0.06
4731 C 31.816407675766413 16.743336717033657 30.021403389423142 C 0.0 **** -0.24
4732 H 30.777587391903268 16.673920566762717 30.343046804442224 H 0.0 **** 0.06
4733 H 32.0960600715066 17.792028179030098 29.920544757032047 H 0.0 **** 0.06
4734 H 31.93329709529617 16.240918331198117 29.06120636054183 H 0.0 **** 0.06
4735 H 32.45832347906338 16.265539001662916 30.762224021244208 H 0.0 **** 0.06
4736 C 55.354820288661415 106.05546208995284 103.41574860740747 C 0.0 **** -0.24
4737 H 54.89408088737491 105.10572237536167 103.68785042230178 H 0.0 **** 0.06
4738 H 56.39345195761001 106.06410668377282 103.74929071929546 H 0.0 **** 0.06
4739 H 54.81278697310955 106.8718455394854 103.89302384632742 H 0.0 **** 0.06
4740 H 55.31945369388029 106.1789207510244 102.3332626356916 H 0.0 **** 0.06
4741 C 9.670421966022587 93.0664542951027 55.13834400211684 C 0.0 **** -0.24
4742 H 9.432382114425593 92.0839959986867 54.73193118741831 H 0.0 **** 0.06
4743 H 10.209679692783766 93.64836784357749 54.39072147222788 H 0.0 **** 0.06
4744 H 10.291113369191521 92.9519335251146 56.026568545884246 H 0.0 **** 0.06
4745 H 8.74775541169825 93.58357334404168 55.40369675099201 H 0.0 **** 0.06
4746 C 62.904311625740405 13.663614784560252 17.506798942606935 C 0.0 **** -0.24
4747 H 61.82572006458254 13.511621352257677 17.460033815700285 H 0.0 **** 0.06
4748 H 63.11838957360854 14.728712039759657 17.596755541825388 H 0.0 **** 0.06
4749 H 63.36549680429886 13.275331908580625 16.59828510859191 H 0.0 **** 0.06
4750 H 63.30796949513221 13.13671309797526 18.371371462088888 H 0.0 **** 0.06
4751 C 17.15517354841289 92.96509436682334 94.63417411299329 C 0.0 **** -0.24
4752 H 18.219345602068273 92.75956669990214 94.52288228441685 H 0.0 **** 0.06
4753 H 16.60652888597417 92.48910516902714 93.82182197732291 H 0.0 **** 0.06
4754 H 16.987584546821765 94.04259734478913 94.60339960582647 H 0.0 **** 0.06
4755 H 16.80736473918259 92.57102470068887 95.58914994773178 H 0.0 **** 0.06
4756 C 48.89943011001467 64.95051552258545 2.393413512482141 C 0.0 **** -0.24
4757 H 48.92535564390582 65.88623532533384 1.8333410866125064 H 0.0 **** 0.06
4758 H 49.27761980700445 65.11929006145155 3.401086252811922 H 0.0 **** 0.06
4759 H 49.52109484157956 64.20942929394155 1.8896110265217203 H 0.0 **** 0.06
4760 H 47.873129421261275 64.58745571342652 2.4460648776407083 H 0.0 **** 0.06
4761 C 45.7043168625706 64.99354262086045 41.98217552572379 C 0.0 **** -0.24
4762 H 45.50672618178788 63.922543774589414 41.944425436704606 H 0.0 **** 0.06
4763 H 45.69673366299525 65.32822325139072 43.0196046027107 H 0.0 **** 0.06
4764 H 44.93351522013126 65.5249252118534 41.423774157126786 H 0.0 **** 0.06
4765 H 46.67889169491683 65.19839980415932 41.541076848932136 H 0.0 **** 0.06
4766 C 32.101277899675836 58.72104766389276 67.18367775835073 C 0.0 **** -0.24
4767 H 31.577212975742796 59.62071591659294 66.85901521037421 H 0.0 **** 0.06
4768 H 33.17228655262818 58.84911146704391 67.03036509194588 H 0.0 **** 0.06
4769 H 31.749293386556076 57.867870000026784 66.60397139240166 H 0.0 **** 0.06
4770 H 31.90366758106216 58.54747919091652 68.24136620129683 H 0.0 **** 0.06
4771 C 108.93653336340239 43.37266519578105 78.7044201622248 C 0.0 **** -0.24
4772 H 109.95963872085838 43.57876660326326 79.01761387559696 H 0.0 **** 0.06
4773 H 108.35371044319481 43.043479555160104 79.56502401765343 H 0.0 **** 0.06
4774 H 108.93955815187343 42.59055020078827 77.94608473398752 H 0.0 **** 0.06
4775 H 108.49457756665055 44.27875575180704 78.29079636223665 H 0.0 **** 0.06
4776 C 22.1009880683404 92.54237714553223 7.241431864704364 C 0.0 **** -0.24
4777 H 21.70427881871433 91.61372776650711 6.830961625497245 H 0.0 **** 0.06
4778 H 21.545409756707272 92.80890722415629 8.141607551343107 H 0.0 **** 0.06
4779 H 22.000204896711267 93.33871331619098 6.503813956818892 H 0.0 **** 0.06
4780 H 23.15429416678535 92.40924766421244 7.490671860175887 H 0.0 **** 0.06
4781 C 52.27942812025657 69.51473796422965 101.6220854310827 C 0.0 **** -0.24
4782 H 52.98566044623129 69.57437677894906 102.45118428383734 H 0.0 **** 0.06
4783 H 51.262488556179164 69.49440378524055 102.01349970548668 H 0.0 **** 0.06
4784 H 52.468060667387704 68.60671878939557 101.05001322681878 H 0.0 **** 0.06
4785 H 52.40387895250552 70.38467935926828 100.97693840289949 H 0.0 **** 0.06
4786 C 63.23676735239076 22.171967453417352 122.33714937375903 C 0.0 **** -0.24
4787 H 62.546494123447474 22.656812956446714 123.02833348687265 H 0.0 **** 0.06
4788 H 64.23565722544191 22.589557819604522 122.46932386716936 H 0.0 **** 0.06
4789 H 62.90443059235139 22.34256623362822 121.31284567080168 H 0.0 **** 0.06
4790 H 63.26001532029352 21.100831969345805 122.53850734025013 H 0.0 **** 0.06
4791 C 110.76024785522398 69.62444568132969 17.326815001790536 C 0.0 **** -0.24
4792 H 110.38861967579217 70.6478413170679 17.265637928314305 H 0.0 **** 0.06
4793 H 111.02864083377565 69.3969513398755 18.35927872034975 H 0.0 **** 0.06
4794 H 111.63962482088473 69.51858324958971 16.691312822861747 H 0.0 **** 0.06
4795 H 109.98462207744299 68.93551362724412 16.99261450121277 H 0.0 **** 0.06
4796 C 110.03311351872247 55.15819947801117 42.96131843175283 C 0.0 **** -0.24
4797 H 110.11411449395996 54.08296894965571 42.802791322296116 H 0.0 **** 0.06
4798 H 110.94739047916843 55.52682221151164 43.42776960233465 H 0.0 **** 0.06
4799 H 109.18416876496406 55.36651267467515 43.61115151194852 H 0.0 **** 0.06
4800 H 109.88888316962479 55.65627043353581 42.00283441618066 H 0.0 **** 0.06
4801 C 112.19309332805696 117.562019406739 74.20808825131348 C 0.0 **** -0.24
4802 H 111.30329509265388 116.93481693718613 74.25440050474378 H 0.0 **** 0.06
4803 H 111.96445881359855 118.54775737595578 74.61412477715425 H 0.0 **** 0.06
4804 H 112.51401227751165 117.66190007723283 73.17100358338752 H 0.0 **** 0.06
4805 H 112.99112936376497 117.10404917014263 74.79209718249177 H 0.0 **** 0.06
4806 C 45.21624680163274 104.84352683095 63.842295518856176 C 0.0 **** -0.24
4807 H 44.55117044917739 105.44250169807151 64.46563518869793 H 0.0 **** 0.06
4808 H 46.11306897462011 105.41925362585314 63.61102854000896 H 0.0 **** 0.06
4809 H 44.70461479198171 104.57927133083533 62.91686890392984 H 0.0 **** 0.06
4810 H 45.493641896750944 103.93550483921044 64.37660785124736 H 0.0 **** 0.06
4811 C 85.37469064776437 21.296346921773335 115.57613177217036 C 0.0 **** -0.24
4812 H 86.24935394353972 21.0850947149423 116.19043240998602 H 0.0 **** 0.06
4813 H 84.87967985074326 20.361289572565425 115.31349745494973 H 0.0 **** 0.06
4814 H 85.68476873618025 21.810819288066824 114.6669324338757 H 0.0 **** 0.06
4815 H 84.68342110573832 21.928748529222503 116.13310513687244 H 0.0 **** 0.06
4816 C 101.66676241569161 63.30698550791473 92.9331775186409 C 0.0 **** -0.24
4817 H 101.67649756338102 64.3806718575255 93.12337638471024 H 0.0 **** 0.06
4818 H 101.4508506974887 63.12719587024381 91.8796560128016 H 0.0 **** 0.06
4819 H 100.89812568806849 62.83649745963069 93.54694647011608 H 0.0 **** 0.06
4820 H 102.64014302438886 62.88525147816097 93.18235269619198 H 0.0 **** 0.06
4821 C 106.74755235736734 74.44609796379424 113.51625800111803 C 0.0 **** -0.24
4822 H 105.92149826510732 74.97257273626857 113.03736688693176 H 0.0 **** 0.06
4823 H 107.2924683079818 75.13517353283672 114.16260562445517 H 0.0 **** 0.06
4824 H 107.42021855959595 74.05584458367267 112.75244965411929 H 0.0 **** 0.06
4825 H 106.35617147692167 73.62047067793347 114.11167748850717 H 0.0 **** 0.06
4826 C 83.63343469275019 7.167852570054549 70.8196526656122 C 0.0 **** -0.24
4827 H 84.0751671610001 8.128882411827647 71.08430680100813 H 0.0 **** 0.06
4828 H 84.0500778415184 6.3891309853481175 71.45998538400218 H 0.0 **** 0.06
4829 H 83.85595099275903 6.939899658151177 69.77748346345926 H 0.0 **** 0.06
4830 H 82.55339123599799 7.213611545066584 70.9591300886628 H 0.0 **** 0.06
4831 C 7.158389284125974 34.43645317193972 71.22464319664086 C 0.0 **** -0.24
4832 H 7.052289039130159 34.134543130556295 70.1824811201024 H 0.0 **** 0.06
4833 H 7.886851549510851 35.24425790999999 71.29591696440234 H 0.0 **** 0.06
4834 H 7.4983247062509975 33.58620793837363 71.8160488659474 H 0.0 **** 0.06
4835 H 6.195517425814387 34.78065814028477 71.60249825595626 H 0.0 **** 0.06
4836 C 3.544991069212415 6.740648746280314 103.46405055009421 C 0.0 **** -0.24
4837 H 4.413400761983155 6.7590387917721415 104.12201945585647 H 0.0 **** 0.06
4838 H 3.306777761467174 5.707607967725295 103.20786711098165 H 0.0 **** 0.06
4839 H 3.766461537886471 7.299229474310209 102.55449289800208 H 0.0 **** 0.06
4840 H 2.694404878836963 7.195047726242848 103.97162259436669 H 0.0 **** 0.06
4841 C 38.67194953958058 35.117555137206864 76.97191219833746 C 0.0 **** -0.24
4842 H 37.7314283542768 34.84914151676756 76.49011995044225 H 0.0 **** 0.06
4843 H 39.26184379437116 35.73728987528125 76.29552295595653 H 0.0 **** 0.06
4844 H 39.226805368329465 34.211793956259555 77.21385708859623 H 0.0 **** 0.06
4845 H 38.4645345492518 35.67335101844154 77.88714317812594 H 0.0 **** 0.06
4846 C 43.39325240766313 60.20161155767693 13.064056766475687 C 0.0 **** -0.24
4847 H 42.88570015173186 59.801852902109346 13.942253476214859 H 0.0 **** 0.06
4848 H 42.689547332246676 60.7860880005953 12.47178644431888 H 0.0 **** 0.06
4849 H 43.77911069413864 59.37815902233845 12.46237241469295 H 0.0 **** 0.06
4850 H 44.219399746282825 60.83861949343745 13.381022391273802 H 0.0 **** 0.06
4851 C 40.96312981679265 99.79050154596273 12.347784437790196 C 0.0 **** -0.24
4852 H 40.80509714918158 100.7956735511068 12.737890310968083 H 0.0 **** 0.06
4853 H 41.96833306861937 99.45486464783887 12.60592604444193 H 0.0 **** 0.06
4854 H 40.849363047076324 99.7994740527992 11.26347619845238 H 0.0 **** 0.06
4855 H 40.22972600229365 99.11199393210583 12.783845197298348 H 0.0 **** 0.06
4856 C 73.71070354877153 52.857368159829264 10.225648835481394 C 0.0 **** -0.24
4857 H 73.43290390525405 53.78464453243578 9.722762475761385 H 0.0 **** 0.06
4858 H 74.77371456631198 52.66886286164163 10.07762856487659 H 0.0 **** 0.06
4859 H 73.13261410942633 52.032231452319934 9.809655181241226 H 0.0 **** 0.06
4860 H 73.50150756875334 52.94666099655802 11.291485839500524 H 0.0 **** 0.06
4861 C 57.61215507046296 60.30569152326049 102.30260441410059 C 0.0 **** -0.24
4862 H 58.110283076307724 60.799820301919 101.46810158100112 H 0.0 **** 0.06
4863 H 57.58245050247308 59.23070417290347 102.1219151855609 H 0.0 **** 0.06
4864 H 56.596575687501456 60.687126787521606 102.39717312828968 H 0.0 **** 0.06
4865 H 58.16335564466311 60.504551854475025 103.22207667576197 H 0.0 **** 0.06
4866 C 51.90628445439563 45.97596790348777 93.84828802878127 C 0.0 **** -0.24
4867 H 51.58777606796167 44.93653932561497 93.76368663775435 H 0.0 **** 0.06
4868 H 52.57905587010515 46.217328820987234 93.02448871288027 H 0.0 **** 0.06
4869 H 52.42353886429635 46.121771507678375 94.79568329926695 H 0.0 **** 0.06
4870 H 51.03287159734316 46.62725125477553 93.80621997214308 H 0.0 **** 0.06
4871 C 27.324110281871782 33.68842638115679 98.31142856306695 C 0.0 **** -0.24
4872 H 26.94069557209724 34.153346042343486 97.4032872943294 H 0.0 **** 0.06
4873 H 27.86909115706132 32.78032399744663 98.05197209262184 H 0.0 **** 0.06
4874 H 26.493016659975183 33.43696237877754 98.97029877181615 H 0.0 **** 0.06
4875 H 27.99407480215089 34.38184397366865 98.81960991033492 H 0.0 **** 0.06
4876 C 18.44022844306226 62.323513921581835 88.62557964970543 C 0.0 **** -0.24
4877 H 19.3184739961388 61.89887816986959 88.14014284659284 H 0.0 **** 0.06
4878 H 17.70552210788371 62.60158714972394 87.86919043174306 H 0.0 **** 0.06
4879 H 18.73029156380348 63.208235882316245 89.19278699414743 H 0.0 **** 0.06
4880 H 18.006626104423006 61.58535448441775 89.30019832633835 H 0.0 **** 0.06
4881 C 34.78892385907178 83.87383976841079 13.707912789586462 C 0.0 **** -0.24
4882 H 34.39296747365093 83.36566402122975 14.58689949777973 H 0.0 **** 0.06
4883 H 35.35334132793102 83.1644564503294 13.101450906542556 H 0.0 **** 0.06
4884 H 35.44551029384746 84.68570361856153 14.023005038177732 H 0.0 **** 0.06
4885 H 33.964777574240514 84.279056704859 13.121275070305323 H 0.0 **** 0.06
4886 C 20.412217860634797 29.031332254890884 76.78141583686681 C 0.0 **** -0.24
4887 H 19.46203796982016 28.554664944623426 76.53763062073963 H 0.0 **** 0.06
4888 H 20.375695868012684 29.411928276966677 77.8021011521532 H 0.0 **** 0.06
4889 H 20.59167300044558 29.855075840042446 76.09127091747627 H 0.0 **** 0.06
4890 H 21.21735044585654 28.301375921309756 76.69410025796279 H 0.0 **** 0.06
4891 C 103.51385886889346 9.083097556154542 11.838501963625113 C 0.0 **** -0.24
4892 H 104.53524519997183 9.384227504055644 12.0730130875598 H 0.0 **** 0.06
4893 H 103.34315620674536 8.068299613202072 12.199023096905098 H 0.0 **** 0.06
4894 H 103.36437172012009 9.116633748253548 10.759112484622541 H 0.0 **** 0.06
4895 H 102.814718157643 9.764050314410042 12.323175334504455 H 0.0 **** 0.06
4896 C 111.32724132050525 31.52993775883141 52.525510036317186 C 0.0 **** -0.24
4897 H 110.36702520113043 31.91845288833474 52.86341187638254 H 0.0 **** 0.06
4898 H 111.5847438760217 30.642338013282767 53.10400279322289 H 0.0 **** 0.06
4899 H 112.09640864286055 32.290456637534305 52.665386593553805 H 0.0 **** 0.06
4900 H 111.26297802939375 31.26876535792718 51.46960432591396 H 0.0 **** 0.06
4901 C 21.41134805514548 62.46820585256519 106.76228407488975 C 0.0 **** -0.24
4902 H 22.435794827954908 62.836191675723526 106.8309064600117 H 0.0 **** 0.06
4903 H 21.348716561730953 61.71266341074508 105.97888529904793 H 0.0 **** 0.06
4904 H 20.743734805821816 63.29569115792661 106.52310777744748 H 0.0 **** 0.06
4905 H 21.119193879236775 62.02917406807586 107.71628289192239 H 0.0 **** 0.06
4906 C 81.1721713823323 11.241852118560274 91.9500086930728 C 0.0 **** -0.24
4907 H 81.39437940199937 10.251047366038335 91.55350112009506 H 0.0 **** 0.06
4908 H 80.18331299196097 11.23462020108272 92.41015711708852 H 0.0 **** 0.06
4909 H 81.19049456017996 11.97018962037032 91.13905957611357 H 0.0 **** 0.06
4910 H 81.91821547357921 11.510689241405686 92.6975282564293 H 0.0 **** 0.06
4911 C 79.92025352127632 16.10478166001467 27.339055490978488 C 0.0 **** -0.24
4912 H 79.96053778326944 16.395948681810065 26.289152789492803 H 0.0 **** 0.06
4913 H 79.86321033294718 16.997864196562595 27.96135073007691 H 0.0 **** 0.06
4914 H 80.8167170428444 15.539742012400495 27.59406931402311 H 0.0 **** 0.06
4915 H 79.0396440734396 15.485546601001545 27.510562522491746 H 0.0 **** 0.06
4916 C 3.272653165691551 32.343622096851135 20.302146617074982 C 0.0 **** -0.24
4917 H 3.949363298968464 33.17732105722038 20.113101173734208 H 0.0 **** 0.06
4918 H 3.852124354520086 31.434742549945497 20.46222092429275 H 0.0 **** 0.06
4919 H 2.6137220534227623 32.209258114830305 19.443399330701425 H 0.0 **** 0.06
4920 H 2.6742305113320697 32.55483660440106 21.188509680082745 H 0.0 **** 0.06
4921 C 37.22086249985239 41.188660656959684 63.88431487438032 C 0.0 **** -0.24
4922 H 37.837108482474946 40.97062331735434 64.75667794443429 H 0.0 **** 0.06
4923 H 37.49157113505677 42.16583732543475 63.4831523719383 H 0.0 **** 0.06
4924 H 36.17009419713631 41.19226275813466 64.17372409030706 H 0.0 **** 0.06
4925 H 37.38539576761448 40.42535242731472 63.124106329332434 H 0.0 **** 0.06
4926 C 10.013365450260949 50.12645514015115 2.918153100418099 C 0.0 **** -0.24
4927 H 10.556185745193915 51.061781270829954 3.055855251521635 H 0.0 **** 0.06
4928 H 10.72416374150609 49.315958267949554 2.751103944387099 H 0.0 **** 0.06
4929 H 9.352521559119111 50.21347771007689 2.056472730412766 H 0.0 **** 0.06
4930 H 9.423011068342362 49.91497333522594 3.8092545616571147 H 0.0 **** 0.06
4931 C 49.51029846358213 32.28685599198943 66.09775648960571 C 0.0 **** -0.24
4932 H 50.26569638041721 32.52316609527943 66.84630786354445 H 0.0 **** 0.06
4933 H 48.79732772237463 31.573745887838605 66.51344807207639 H 0.0 **** 0.06
4934 H 49.99060427102138 31.851963887639364 65.22141872403179 H 0.0 **** 0.06
4935 H 48.98661608130385 33.198717695737706 65.80958685388522 H 0.0 **** 0.06
4936 C 78.07133148138841 61.203352731193235 18.346032213798697 C 0.0 **** -0.24
4937 H 78.66242715924504 61.92767843046903 17.78469101274796 H 0.0 **** 0.06
4938 H 78.19863917653608 61.38012229644892 19.413562973831883 H 0.0 **** 0.06
4939 H 78.40615390207557 60.19518659587999 18.101504694278464 H 0.0 **** 0.06
4940 H 77.01965930651336 61.31067053956468 18.08162685032373 H 0.0 **** 0.06
4941 C 31.068354018718026 88.38728845472964 101.72616510219021 C 0.0 **** -0.24
4942 H 31.729900873922816 89.24989653112166 101.80667459363332 H 0.0 **** 0.06
4943 H 30.13018447151032 88.69231780490674 101.26061939906108 H 0.0 **** 0.06
4944 H 30.867639746362244 87.98914517189591 102.72128090731283 H 0.0 **** 0.06
4945 H 31.544795996281493 87.61980692699751 101.1164710519785 H 0.0 **** 0.06
4946 C 36.98488909082013 6.091655276946071 75.44895165162299 C 0.0 **** -0.24
4947 H 37.207389535286666 5.197803654941897 76.03301210878581 H 0.0 **** 0.06
4948 H 37.73477263930366 6.855757579340743 75.65488141662706 H 0.0 **** 0.06
4949 H 35.998775887573174 6.467217264878208 75.72278311309012 H 0.0 **** 0.06
4950 H 36.999207901137424 5.8449244013604975 74.38792456095624 H 0.0 **** 0.06
4951 C 108.70746521552248 118.57158152786727 56.956436165935486 C 0.0 **** -0.24
4952 H 109.12372162638401 118.90285157951207 57.907925773443594 H 0.0 **** 0.06
4953 H 109.51733886040572 118.38337080590712 56.25217338277051 H 0.0 **** 0.06
4954 H 108.05244502548949 119.34645013187024 56.5574274752349 H 0.0 **** 0.06
4955 H 108.13630463199203 117.65595323908491 57.109060280922535 H 0.0 **** 0.06
4956 C 116.42969852504025 40.67322720672962 29.19231043265458 C 0.0 **** -0.24
4957 H 117.03316710326591 39.99935784902303 28.584087219799812 H 0.0 **** 0.06
4958 H 117.03696703173964 41.523987057911796 29.503023157636704 H 0.0 **** 0.06
4959 H 116.06958053482408 40.14317924776097 30.07320646599166 H 0.0 **** 0.06
4960 H 115.58035897171507 41.02681227619584 28.60744835639619 H 0.0 **** 0.06
4961 C 104.23703606763291 30.360911983022163 108.59181155864316 C 0.0 **** -0.24
4962 H 105.10471247894809 30.55421167200842 109.22304654957303 H 0.0 **** 0.06
4963 H 104.02584262053682 29.291490726588677 108.58285475960506 H 0.0 **** 0.06
4964 H 104.44346192857937 30.699405827910937 107.57704709067058 H 0.0 **** 0.06
4965 H 103.3747809299813 30.898103118220774 108.98584128701759 H 0.0 **** 0.06
4966 C 44.326567760899856 109.17230224831013 118.18578252204021 C 0.0 **** -0.24
4967 H 44.064446015349446 108.63434004067722 119.09669061179808 H 0.0 **** 0.06
4968 H 43.438254556804466 109.28732235446103 117.5642434946729 H 0.0 **** 0.06
4969 H 45.08424570060714 108.6124721507141 117.63806993782165 H 0.0 **** 0.06
4970 H 44.7189528567492 110.15597746131766 118.446137638726 H 0.0 **** 0.06
4971 C 57.878929425501696 110.08209833261361 50.63030656682196 C 0.0 **** -0.24
4972 H 58.14977535271605 109.11572710915551 51.05345400185479 H 0.0 **** 0.06
4973 H 58.18589454234905 110.12059895288094 49.584426121768615 H 0.0 **** 0.06
4974 H 58.3805969057247 110.87559161271616 51.18535244705902 H 0.0 **** 0.06
4975 H 56.79934694122531 110.21860308573812 50.69731288688217 H 0.0 **** 0.06
4976 C 120.58216907267837 59.33491857362574 123.93285828578314 C 0.0 **** -0.24
4977 H 119.98260915010121 59.54698784858013 123.04689423611194 H 0.0 **** 0.06
4978 H 119.96634857168473 59.450745234667835 124.82417525986273 H 0.0 **** 0.06
4979 H 121.42193720328575 60.02954709106143 123.97682986499115 H 0.0 **** 0.06
4980 H 120.9585676566868 58.3134541225983 123.88017836290794 H 0.0 **** 0.06
4981 C 91.49626603929948 84.70052490832599 114.41877699210134 C 0.0 **** -0.24
4982 H 91.45620574137763 83.68286813573118 114.80648118717752 H 0.0 **** 0.06
4983 H 92.52624771698805 85.05833967633244 114.44508520423486 H 0.0 **** 0.06
4984 H 90.87024147141176 85.34762044322605 115.033003583888 H 0.0 **** 0.06
4985 H 91.13332280283714 84.71230082107951 113.39092376558699 H 0.0 **** 0.06
4986 C 120.31846191172997 96.04044215571915 3.8031902514644003 C 0.0 **** -0.24
4987 H 121.18958057781205 95.5575170974234 4.246446823034773 H 0.0 **** 0.06
4988 H 120.64462369956121 96.86446464688021 3.1675612717378385 H 0.0 **** 0.06
4989 H 119.67362516207979 96.42371328017185 4.5944415107877035 H 0.0 **** 0.06
4990 H 119.7677231762424 95.31581998947625 3.2044814733954183 H 0.0 **** 0.06
4991 C 12.643111488703425 44.416320924871734 120.55577295328439 C 0.0 **** -0.24
4992 H 13.30575601215071 45.16811234475186 120.98423717714155 H 0.0 **** 0.06
4993 H 11.738409564605433 44.34172277776369 121.15980879273062 H 0.0 **** 0.06
4994 H 13.150710793311816 43.45134334638881 120.54024947247561 H 0.0 **** 0.06
4995 H 12.378452202402116 44.703488658502124 119.53743954146623 H 0.0 **** 0.06
4996 C 109.77012673248421 77.09009141344505 108.97172064164641 C 0.0 **** -0.24
4997 H 109.52380988823867 77.93928219960884 108.33460863666843 H 0.0 **** 0.06
4998 H 110.85074707823239 76.94544971617682 108.9836869480808 H 0.0 **** 0.06
4999 H 109.28841342997359 76.19286257602487 108.5839895788868 H 0.0 **** 0.06
5000 H 109.41753653349204 77.2827711619696 109.98459740294976 H 0.0 **** 0.06
5001 C 68.01990844690641 65.39020779545885 32.11975730495348 C 0.0 **** -0.24
5002 H 68.70343442314466 66.02422353017775 31.554460896519004 H 0.0 **** 0.06
5003 H 68.5902744799187 64.63441860508695 32.66102902103589 H 0.0 **** 0.06
5004 H 67.32650188449665 64.90164964158768 31.434754377771327 H 0.0 **** 0.06
5005 H 67.460775912459 66.00036188249564 32.82915670543176 H 0.0 **** 0.06
5006 C 10.31226110125661 13.752147834186928 64.95857019447402 C 0.0 **** -0.24
5007 H 10.953662573722923 14.560247543001054 64.60768461664327 H 0.0 **** 0.06
5008 H 10.806304181107862 12.79583664043669 64.78438900029712 H 0.0 **** 0.06
5009 H 9.366471206346603 13.777612569983063 64.41599226733398 H 0.0 **** 0.06
5010 H 10.122763875314206 13.875035770361194 66.0252374811302 H 0.0 **** 0.06
5011 C 79.4279642538113 81.49911768256928 82.17096193946892 C 0.0 **** -0.24
5012 H 80.13020475281188 81.6990543676196 81.36045998762252 H 0.0 **** 0.06
5013 H 78.64833173114255 82.26057977128065 82.17150961396169 H 0.0 **** 0.06
5014 H 79.95742161802998 81.518595418512 83.12282755601585 H 0.0 **** 0.06
5015 H 78.9775213696758 80.51787201846207 82.02527803194432 H 0.0 **** 0.06
5016 C 8.206725042711412 84.68849666583854 86.92586729360752 C 0.0 **** -0.24
5017 H 7.8622767973598116 85.11407862553973 87.86871624359893 H 0.0 **** 0.06
5018 H 7.355543885910379 84.28341325655771 86.37791855789433 H 0.0 **** 0.06
5019 H 8.921877457272387 83.89115947719698 87.12796661309451 H 0.0 **** 0.06
5020 H 8.686043635522026 85.46538382012886 86.33102555720646 H 0.0 **** 0.06
5021 C 80.68351392200829 93.17777580553864 39.432909716769785 C 0.0 **** -0.24
5022 H 79.65494192083543 92.9333773761828 39.70211756162313 H 0.0 **** 0.06
5023 H 80.71802407204368 93.50793507691844 38.394631517868575 H 0.0 **** 0.06
5024 H 81.31085438457096 92.29519448957065 39.555982246953086 H 0.0 **** 0.06
5025 H 81.04708887342741 93.97597598226292 40.080389803834706 H 0.0 **** 0.06
5026 C 124.00780866758458 122.76417307062593 4.0326720702370835 C 0.0 **** -0.24
5027 H 124.10328055196248 121.90919910259655 4.702787281607129 H 0.0 **** 0.06
5028 H 123.99452911036786 122.41529795995089 3.000050395718432 H 0.0 **** 0.06
5029 H 124.85352939847309 123.4361040981253 4.178955522382182 H 0.0 **** 0.06
5030 H 123.08054747126346 123.29310562001413 4.250526797721307 H 0.0 **** 0.06
5031 C 75.51509844537924 72.09812648445666 116.09455229747799 C 0.0 **** -0.24
5032 H 74.59468311368948 72.40030762117719 115.595843127852 H 0.0 **** 0.06
5033 H 75.325415709597 71.96640443780646 117.15951212550405 H 0.0 **** 0.06
5034 H 76.27440026500625 72.86842862556965 115.95339579639983 H 0.0 **** 0.06
5035 H 75.86799028036938 71.15846807246388 115.6688315413275 H 0.0 **** 0.06
5036 C 23.413595861218937 41.35556741055467 14.05289530294101 C 0.0 **** -0.24
5037 H 22.710359239926333 41.78406049627441 14.766783683565563 H 0.0 **** 0.06
5038 H 23.21978794797971 41.76425577957863 13.060603976109974 H 0.0 **** 0.06
5039 H 23.293013252622274 40.272328691580555 14.030148024925438 H 0.0 **** 0.06
5040 H 24.431999354636048 41.60177952800123 14.35521745205746 H 0.0 **** 0.06
5041 C 119.91034364231768 61.96112843660231 79.47065834673673 C 0.0 **** -0.24
5042 H 119.41534661384546 62.68561866402652 78.82478490450976 H 0.0 **** 0.06
5043 H 120.63392966160546 61.391154692033496 78.88880110359695 H 0.0 **** 0.06
5044 H 119.16842059734176 61.2840374279065 79.89264366379786 H 0.0 **** 0.06
5045 H 120.42360499983963 62.485240556829865 80.27719786840936 H 0.0 **** 0.06
5046 C 84.93818268533091 78.36436149227994 71.00768493505701 C 0.0 **** -0.24
5047 H 84.29529785790879 79.21320627744277 71.2396619000082 H 0.0 **** 0.06
5048 H 84.34201068451085 77.56917392913293 70.55819913776318 H 0.0 **** 0.06
5049 H 85.40088507254848 77.99775865139067 71.92466401411768 H 0.0 **** 0.06
5050 H 85.71347601632782 78.67594164888294 70.30831327418444 H 0.0 **** 0.06
5051 C 122.48125212646642 95.25252744128592 16.33442195178384 C 0.0 **** -0.24
5052 H 121.73065902032464 95.96434478193817 15.989987920167835 H 0.0 **** 0.06
5053 H 121.98687745026908 94.37078483335088 16.741820216875794 H 0.0 **** 0.06
5054 H 123.09314392463983 95.71756030328565 17.10841591760567 H 0.0 **** 0.06
5055 H 123.11552934918106 94.96081146902895 15.49769746201963 H 0.0 **** 0.06
5056 C 82.31716734469803 36.21329233805642 30.43533678887283 C 0.0 **** -0.24
5057 H 81.72964773677897 35.47270757293492 29.893111191004635 H 0.0 **** 0.06
5058 H 81.74320763242677 36.579710147414204 31.286809616778214 H 0.0 **** 0.06
5059 H 82.5547664955841 37.04568221391017 29.771786092374242 H 0.0 **** 0.06
5060 H 83.24128724328685 35.756462634852085 30.78960045799886 H 0.0 **** 0.06
5061 C 53.53402300769204 30.05424490355073 26.509774009919738 C 0.0 **** -0.24
5062 H 54.174649564556944 30.408636197093728 25.703088160543786 H 0.0 **** 0.06
5063 H 53.412212119060825 28.973075873883744 26.429646265510655 H 0.0 **** 0.06
5064 H 52.558172111527426 30.536421183642034 26.43888069768701 H 0.0 **** 0.06
5065 H 53.99078683458413 30.298288770765254 27.469850674981956 H 0.0 **** 0.06
5066 C 3.4921639221362284 1.242109507640123 94.5447487613075 C 0.0 **** -0.24
5067 H 3.1752321122123988 1.2114421287993622 95.5869648712838 H 0.0 **** 0.06
5068 H 3.367286723396859 0.25496775774298897 94.09756237883605 H 0.0 **** 0.06
5069 H 4.540240793051581 1.535504955399844 94.49207382388798 H 0.0 **** 0.06
5070 H 2.8837016793272454 1.9656354928713426 94.00176388235872 H 0.0 **** 0.06
5071 C 77.34898588843274 21.223396638236352 70.75534417164229 C 0.0 **** -0.24
5072 H 76.54905922452218 21.904928753599734 71.04394422597971 H 0.0 **** 0.06
5073 H 77.75781833571067 20.74491092598481 71.64619334305604 H 0.0 **** 0.06
5074 H 78.13622425220905 21.78051736455103 70.24735404750085 H 0.0 **** 0.06
5075 H 76.95264579908091 20.461034910684305 70.08350347622006 H 0.0 **** 0.06
5076 C 50.39907192262555 26.496095700939293 101.97373352471271 C 0.0 **** -0.24
5077 H 49.36265703918298 26.439906373181486 101.63983579585812 H 0.0 **** 0.06
5078 H 50.90128427561632 27.316286624622762 101.4601117355121 H 0.0 **** 0.06
5079 H 50.905567419934414 25.55908240343632 101.74324041249594 H 0.0 **** 0.06
5080 H 50.425381046719195 26.669772894593848 103.04898870927843 H 0.0 **** 0.06
5081 C 55.32419757515464 20.208977933431328 30.932966770898418 C 0.0 **** -0.24
5082 H 55.642080765661206 19.87369823072828 29.945438272119247 H 0.0 **** 0.06
5083 H 54.27953948252423 20.51883741055451 30.891962754181492 H 0.0 **** 0.06
5084 H 55.941666894535786 21.050561724905208 31.247318614892293 H 0.0 **** 0.06
5085 H 55.433826014419935 19.391352013953593 31.645821734983087 H 0.0 **** 0.06
5086 C 92.52934993948656 108.69518529435288 120.87856119599442 C 0.0 **** -0.24
5087 H 91.8747275121035 107.90443597546505 121.24489123093585 H 0.0 **** 0.06
5088 H 92.64611911620814 108.59898292732805 119.79889143331476 H 0.0 **** 0.06
5089 H 93.50416010235368 108.60999517793744 121.35860753718235 H 0.0 **** 0.06
5090 H 92.09278085668133 109.66643422249086 121.11208353158037 H 0.0 **** 0.06
5091 C 74.79319819632303 93.9972046065335 41.348102460713534 C 0.0 **** -0.24
5092 H 74.24527069186877 93.47257396163283 42.13160990166605 H 0.0 **** 0.06
5093 H 74.4469223762764 95.03008454125131 41.29249763058928 H 0.0 **** 0.06
5094 H 74.61960990244108 93.50436114359272 40.39089287271739 H 0.0 **** 0.06
5095 H 75.85822237892882 93.98238279158812 41.57743509473241 H 0.0 **** 0.06
5096 C 15.146049425202673 57.18768423788637 44.09864180276476 C 0.0 **** -0.24
5097 H 15.739811813312453 56.35402051718938 43.72184502651402 H 0.0 **** 0.06
5098 H 14.973834290159107 57.057654626782806 45.16666938142725 H 0.0 **** 0.06
5099 H 14.18941150705497 57.21669940677745 43.57631167780562 H 0.0 **** 0.06
5100 H 15.68125267289398 58.12138037435386 43.927090959616706 H 0.0 **** 0.06
5101 C 65.07313987800727 43.20103273592232 7.789990769114411 C 0.0 **** -0.24
5102 H 65.4327857998841 42.20038346655737 8.032076743889462 H 0.0 **** 0.06
5103 H 64.09247651892268 43.130601059154884 7.320194618821304 H 0.0 **** 0.06
5104 H 65.7717393375335 43.68170002067112 7.10600948297477 H 0.0 **** 0.06
5105 H 64.99729302106081 43.78929530780233 8.704204683112437 H 0.0 **** 0.06
5106 C 114.77552552117214 62.584173622434065 83.87397917064118 C 0.0 **** -0.24
5107 H 115.70431410470943 62.547086673278756 84.44336308221023 H 0.0 **** 0.06
5108 H 114.90546344760014 62.05114958811038 82.93221157104806 H 0.0 **** 0.06
5109 H 114.51471448696897 63.623145808931184 83.67141528082733 H 0.0 **** 0.06
5110 H 113.97778745346467 62.11439895371157 84.44999174333182 H 0.0 **** 0.06
5111 C 64.06019870315316 123.32208240348658 90.78332245575879 C 0.0 **** -0.24
5112 H 64.77871886484724 122.55783747694068 91.07983920941817 H 0.0 **** 0.06
5113 H 64.45263549003369 123.87822608175668 89.93104352889603 H 0.0 **** 0.06
5114 H 63.89248251638526 124.00501135597776 91.61639931712935 H 0.0 **** 0.06
5115 H 63.11932032737286 122.84787972443377 90.50617746600273 H 0.0 **** 0.06
5116 C 74.51271842973873 76.19137717053022 1.5310675448707798 C 0.0 **** -0.24
5117 H 74.22787620214484 77.24285692337543 1.5854093091520554 H 0.0 **** 0.06
5118 H 73.99516590584815 75.63571714608668 2.3131788162413045 H 0.0 **** 0.06
5119 H 75.58952098048292 76.09974457707929 1.671115429621807 H 0.0 **** 0.06
5120 H 74.2368578800563 75.79070218823563 0.556452165545636 H 0.0 **** 0.06
5121 C 52.84724218867774 53.64491709597007 116.23472637147563 C 0.0 **** -0.24
5122 H 53.55815251163068 53.247780535994934 116.96014682830385 H 0.0 **** 0.06
5123 H 52.009956341389454 54.10367852707472 116.76188397235025 H 0.0 **** 0.06
5124 H 52.481041560968606 52.83493383446208 115.60448444593726 H 0.0 **** 0.06
5125 H 53.341188357562146 54.392963040299634 115.61522325317677 H 0.0 **** 0.06
5126 C 30.91499643109512 10.855010410318219 48.02029806718967 C 0.0 **** -0.24
5127 H 31.465551723308238 11.776505172693469 48.209741945139626 H 0.0 **** 0.06
5128 H 30.401349670896366 10.545205509995306 48.93082795580317 H 0.0 **** 0.06
5129 H 31.608913852986035 10.074210641799358 47.71010457608466 H 0.0 **** 0.06
5130 H 30.18334419604554 11.025625535691319 47.23029033539585 H 0.0 **** 0.06
5131 C 58.50967138195266 107.01602325063413 28.331184245943405 C 0.0 **** -0.24
5132 H 58.43185209258627 106.17444670917598 29.019561173028137 H 0.0 **** 0.06
5133 H 57.94990322698986 107.86270896993099 28.728687225937044 H 0.0 **** 0.06
5134 H 58.09972811064851 106.73079964440831 27.362505405126356 H 0.0 **** 0.06
5135 H 59.55806643569365 107.29475051765198 28.2158077411948 H 0.0 **** 0.06
5136 C 83.00052791048093 96.37118016117029 23.482712740495742 C 0.0 **** -0.24
5137 H 82.82191220162692 95.50017327222167 24.112912799133113 H 0.0 **** 0.06
5138 H 82.69572799126813 96.14764762788667 22.460125361770025 H 0.0 **** 0.06
5139 H 84.06202499038248 96.61916180549747 23.499289358734103 H 0.0 **** 0.06
5140 H 82.42281396307436 97.2155348698397 23.85841530097389 H 0.0 **** 0.06
5141 C 29.49546948122196 35.50241915482775 95.2656883345098 C 0.0 **** -0.24
5142 H 28.432714344461147 35.27375834168549 95.33789219151987 H 0.0 **** 0.06
5143 H 29.77435517576808 35.60657667875762 94.21761026844763 H 0.0 **** 0.06
5144 H 30.0722393996609 34.69501792129779 95.71789345073563 H 0.0 **** 0.06
5145 H 29.70297999973903 36.43516299702429 95.79138890322713 H 0.0 **** 0.06
5146 C 71.66700871259388 113.84787958788434 12.157856874330548 C 0.0 **** -0.24
5147 H 72.0376063013245 113.32914510105525 11.273543759848224 H 0.0 **** 0.06
5148 H 71.43838443226048 113.11946459330116 12.936208512481471 H 0.0 **** 0.06
5149 H 70.7648265104462 114.40336122013308 11.902161498719238 H 0.0 **** 0.06
5150 H 72.42909556158929 114.53916721904903 12.52008725296514 H 0.0 **** 0.06
5151 C 47.629106908848655 103.36543681395086 18.06644633725729 C 0.0 **** -0.24
5152 H 47.21255915593974 102.3836681607105 17.84001529337411 H 0.0 **** 0.06
5153 H 48.6504985429674 103.25142694550081 18.431251288012447 H 0.0 **** 0.06
5154 H 47.02262934139509 103.85059110269346 18.830762334741323 H 0.0 **** 0.06
5155 H 47.631971374560294 103.97640666369439 17.1631515873176 H 0.0 **** 0.06
5156 C 52.89240025788715 57.40682497290821 29.214417341549733 C 0.0 **** -0.24
5157 H 52.878557439007125 56.8803047611636 30.1684008412673 H 0.0 **** 0.06
5158 H 53.025801101134306 56.68902472002294 28.404871953802456 H 0.0 **** 0.06
5159 H 53.716831144847646 58.12150294364102 29.20553207293527 H 0.0 **** 0.06
5160 H 51.95026828427879 57.937936381927344 29.079492504893125 H 0.0 **** 0.06
5161 C 64.46009514175795 5.549111926014859 13.892234579266805 C 0.0 **** -0.24
5162 H 63.43348418205338 5.333669349593379 13.596126260183016 H 0.0 **** 0.06
5163 H 65.07770622835258 4.665349588159444 13.73078673417222 H 0.0 **** 0.06
5164 H 64.48336851316141 5.820818784339394 14.948345618894916 H 0.0 **** 0.06
5165 H 64.84428778880046 6.376250750669357 13.296232883277312 H 0.0 **** 0.06
5166 C 53.58734384529261 2.055683281687692 104.75037171244767 C 0.0 **** -0.24
5167 H 52.98593779997864 2.0262747228722446 103.84161947584462 H 0.0 **** 0.06
5168 H 54.047710429289054 1.0806048322400272 104.91338826527064 H 0.0 **** 0.06
5169 H 52.95082129606273 2.30463023193397 105.59974689022383 H 0.0 **** 0.06
5170 H 54.365045924912806 2.8124018814466183 104.64596311035453 H 0.0 **** 0.06
5171 C 96.26996832801413 119.94019622526122 67.99683674969715 C 0.0 **** -0.24
5172 H 95.23117511602948 119.72636981428863 67.7437939163279 H 0.0 **** 0.06
5173 H 96.91228188777418 119.64634367172133 67.16675442440521 H 0.0 **** 0.06
5174 H 96.54984887870788 119.38053270095739 68.88867824991696 H 0.0 **** 0.06
5175 H 96.38508228046774 121.00761122337427 68.18571426940349 H 0.0 **** 0.06
5176 C 63.88069393432218 32.048237302780414 106.11656758336994 C 0.0 **** -0.24
5177 H 63.99940022619353 33.12724102356091 106.01729775499388 H 0.0 **** 0.06
5178 H 63.143326243175636 31.696721715204625 105.39441841401043 H 0.0 **** 0.06
5179 H 63.54410683509829 31.811169723233995 107.12545843684546 H 0.0 **** 0.06
5180 H 64.8363420818275 31.55887762750214 105.92825019526407 H 0.0 **** 0.06
5181 C 116.77805507818053 75.54846714681352 8.929218795705566 C 0.0 **** -0.24
5182 H 116.23379046412813 76.39096074569193 9.355015966895166 H 0.0 **** 0.06
5183 H 117.76126754745582 75.88146254854091 8.597178141746326 H 0.0 **** 0.06
5184 H 116.22319684467044 75.14901202422668 8.079458400606853 H 0.0 **** 0.06
5185 H 116.89357532376428 74.77110176223013 9.68494882326786 H 0.0 **** 0.06
5186 C 60.30582196767767 39.40956890698959 70.8000187902752 C 0.0 **** -0.24
5187 H 61.158441433186965 39.86600398967272 71.30341108388279 H 0.0 **** 0.06
5188 H 59.485129734002385 39.29534444810139 71.50775511400576 H 0.0 **** 0.06
5189 H 60.59210043795116 38.43130528395494 70.41391825360466 H 0.0 **** 0.06
5190 H 59.98825549335089 40.04702269549102 69.97419740124434 H 0.0 **** 0.06
5191 C 95.89319298086156 40.21939276546763 89.04126875189223 C 0.0 **** -0.24
5192 H 95.64110971423423 41.21993994818931 88.68943344042458 H 0.0 **** 0.06
5193 H 94.9844707093194 39.70597340771755 89.35442537082162 H 0.0 **** 0.06
5194 H 96.57832114552309 40.29324236986943 89.88563793980705 H 0.0 **** 0.06
5195 H 96.3683878280819 39.661213690909875 88.23418652559957 H 0.0 **** 0.06
5196 C 108.56277653696031 101.64720403983907 4.398027939465976 C 0.0 **** -0.24
5197 H 108.90076093220003 102.07879412722053 3.4557746480918325 H 0.0 **** 0.06
5198 H 109.01768191159289 102.18629940631662 5.228825132592959 H 0.0 **** 0.06
5199 H 108.85399428910728 100.59734870225468 4.44177427374953 H 0.0 **** 0.06
5200 H 107.47716191819879 101.72483108547446 4.464576397363032 H 0.0 **** 0.06
5201 C 78.12149038795997 5.791238631128692 123.36644326975937 C 0.0 **** -0.24
5202 H 78.70276184114789 5.679860937693348 122.45126011858275 H 0.0 **** 0.06
5203 H 77.31746532984579 6.50779576616398 123.20054194559384 H 0.0 **** 0.06
5204 H 78.76940081861585 6.1494559374085895 124.16631771734365 H 0.0 **** 0.06
5205 H 77.69736138221907 4.826254256594922 123.64646027790457 H 0.0 **** 0.06
5206 C 7.45665516340901 38.6076119193217 115.54603948606409 C 0.0 **** -0.24
5207 H 7.47474511305154 38.1620507678162 114.55184550267086 H 0.0 **** 0.06
5208 H 8.463241550226513 38.92827453276345 115.81736424475336 H 0.0 **** 0.06
5209 H 7.103122151364602 37.8713843776419 116.26825493220166 H 0.0 **** 0.06
5210 H 6.788863285231685 39.46837178390484 115.54748971805294 H 0.0 **** 0.06
5211 C 109.91982670974454 78.51804064873429 12.196983346117818 C 0.0 **** -0.24
5212 H 110.58008683569471 79.33022466409275 11.893232815512224 H 0.0 **** 0.06
5213 H 109.26564062403122 78.2529744001175 11.365727539924535 H 0.0 **** 0.06
5214 H 109.31772509671092 78.83881059306034 13.046436074523648 H 0.0 **** 0.06
5215 H 110.51750107348988 77.65170673607273 12.480568637285831 H 0.0 **** 0.06
5216 C 59.22495882499601 123.81942525612435 26.04114931404405 C 0.0 **** -0.24
5217 H 59.72066617943766 123.62137399092806 25.09116005826371 H 0.0 **** 0.06
5218 H 59.22179342564809 124.89166242639747 26.23385912252536 H 0.0 **** 0.06
5219 H 59.75870800700085 123.30758621099066 26.842027781001264 H 0.0 **** 0.06
5220 H 58.198686561708314 123.45340089504451 25.99824049718407 H 0.0 **** 0.06
5221 C 66.1133076771997 10.630399721932832 124.03364932453437 C 0.0 **** -0.24
5222 H 66.02623508751978 11.308249385740936 123.18486026215542 H 0.0 **** 0.06
5223 H 66.0079236858254 9.601935721717865 123.68869467897467 H 0.0 **** 0.06
5224 H 65.3289694967492 10.852795969406174 124.75842400238386 H 0.0 **** 0.06
5225 H 67.08865454471764 10.759052391251743 124.50346387444154 H 0.0 **** 0.06
5226 C 17.058370294254615 117.35122390880201 0.4565223221803336 C 0.0 **** -0.24
5227 H 16.83830748681018 118.28752730853708 -0.056126681204574425 H 0.0 **** 0.06
5228 H 16.86831339108784 117.46929068204881 1.5244888255605957 H 0.0 **** 0.06
5229 H 18.104963705825497 117.08855017208569 0.30075816201730277 H 0.0 **** 0.06
5230 H 16.422382491049717 116.56081187233184 0.05944176408704038 H 0.0 **** 0.06
5231 C 79.4746721260284 31.788264150253042 90.12265216924274 C 0.0 **** -0.24
5232 H 79.47628209764741 32.04818633465436 89.06384737071411 H 0.0 **** 0.06
5233 H 78.47904605780846 31.95394326058033 90.5355733868229 H 0.0 **** 0.06
5234 H 80.1950361246553 32.413378754353175 90.65108115467947 H 0.0 **** 0.06
5235 H 79.74711381507834 30.73942688876238 90.24018357690986 H 0.0 **** 0.06
5236 C 113.29053251359392 29.633361537748847 50.049685006057835 C 0.0 **** -0.24
5237 H 112.63258165355012 28.90081142181323 50.519805024010715 H 0.0 **** 0.06
5238 H 114.10860058211165 29.11662505020223 49.54699843373323 H 0.0 **** 0.06
5239 H 113.69470570364496 30.299331744297476 50.81129143979979 H 0.0 **** 0.06
5240 H 112.72434303156064 30.214614432716743 49.321710924079504 H 0.0 **** 0.06
5241 C 0.44031654326627745 81.86143488134843 116.4836874587917 C 0.0 **** -0.24
5242 H 0.3817346455113295 80.8815918773895 116.0103624891729 H 0.0 **** 0.06
5243 H 0.8162548954617392 82.58989567334004 115.76444758179315 H 0.0 **** 0.06
5244 H 1.1160128113522916 81.81164784499174 117.33815136539675 H 0.0 **** 0.06
5245 H -0.550493158989056 82.16162085996672 116.82183700426079 H 0.0 **** 0.06
5246 C 0.9098235311804359 64.33812226717592 69.21156732612967 C 0.0 **** -0.24
5247 H 0.9391558133888367 63.379682004329396 69.73101092316998 H 0.0 **** 0.06
5248 H 1.609413826448531 65.02819145432785 69.68302425054824 H 0.0 **** 0.06
5249 H -0.09772815362191523 64.74852770861963 69.26463890401789 H 0.0 **** 0.06
5250 H 1.1896563524818191 64.19334141355752 68.16768665799037 H 0.0 **** 0.06
5251 C 37.201927321690334 84.0518837437923 115.99310747015292 C 0.0 **** -0.24
5252 H 38.289039113790295 84.11145471150567 115.93770913174961 H 0.0 **** 0.06
5253 H 36.83454089769725 83.38680427765487 115.21183273976945 H 0.0 **** 0.06
5254 H 36.7775514380229 85.0460997772619 115.85482778018368 H 0.0 **** 0.06
5255 H 36.909594890403866 83.6639747139217 116.9685704406254 H 0.0 **** 0.06
5256 C 93.55499915637748 71.65385571518348 6.353871995143152 C 0.0 **** -0.24
5257 H 93.77365223664705 71.68416306943372 7.42135548900859 H 0.0 **** 0.06
5258 H 93.56261452201 70.61924656225789 6.011184668903979 H 0.0 **** 0.06
5259 H 94.31135713202849 72.22211440383096 5.812129064598906 H 0.0 **** 0.06
5260 H 92.5723309594897 72.09040119386891 6.171682432870938 H 0.0 **** 0.06
5261 C 18.6620599574847 2.3096817247600256 104.3563182241072 C 0.0 **** -0.24
5262 H 18.52275439932839 3.0780922375735713 103.59586838710507 H 0.0 **** 0.06
5263 H 17.698448020209412 2.0601180434723005 104.80138423481974 H 0.0 **** 0.06
5264 H 19.334113033675692 2.6810830254550524 105.1298448460514 H 0.0 **** 0.06
5265 H 19.092924376725307 1.4194335925392352 103.8981754284526 H 0.0 **** 0.06
5266 C 17.898456114406212 22.907123526979376 64.5712033993523 C 0.0 **** -0.24
5267 H 18.000265674198815 23.960416021487617 64.83255266976408 H 0.0 **** 0.06
5268 H 18.883561019573964 22.487234678003915 64.36924955226779 H 0.0 **** 0.06
5269 H 17.27353245022063 22.813235215762973 63.683042879037956 H 0.0 **** 0.06
5270 H 17.435809747453035 22.370696053212356 65.39977905914446 H 0.0 **** 0.06
5271 C 90.62277836069316 22.96591370964296 85.89902355233696 C 0.0 **** -0.24
5272 H 89.91910628871202 23.567873709232217 86.47462977210321 H 0.0 **** 0.06
5273 H 91.48644306360356 22.724777575520193 86.5196662957437 H 0.0 **** 0.06
5274 H 90.94851464156082 23.5259319630766 85.02297270377323 H 0.0 **** 0.06
5275 H 90.13518778406117 22.04418586834916 85.5812234027234 H 0.0 **** 0.06
5276 C 2.8990330760822474 87.5923282230132 78.27362314648087 C 0.0 **** -0.24
5277 H 1.8696754993321605 87.94577412124771 78.22263658396679 H 0.0 **** 0.06
5278 H 3.1445120661564516 87.33537986968756 79.30474263063928 H 0.0 **** 0.06
5279 H 3.570470057158957 88.37742499832432 77.92572208545238 H 0.0 **** 0.06
5280 H 3.0120489619883415 86.71138730052184 77.64319225450208 H 0.0 **** 0.06
5281 C 53.93742672419465 38.778750376977484 51.76612786810654 C 0.0 **** -0.24
5282 H 53.88316301297343 39.52865820655103 52.554961421538565 H 0.0 **** 0.06
5283 H 54.20594247473025 39.259974426890665 50.82473501236825 H 0.0 **** 0.06
5284 H 52.96867632360285 38.289828015650215 51.66100737423642 H 0.0 **** 0.06
5285 H 54.69303958230023 38.036139093467796 52.023035272755976 H 0.0 **** 0.06
5286 C 117.64189167534394 99.54318671329486 4.667275672573339 C 0.0 **** -0.24
5287 H 117.24941813974056 100.16504467814451 3.862866642820677 H 0.0 **** 0.06
5288 H 118.22320137922793 100.15984456469172 5.3525528522150125 H 0.0 **** 0.06
5289 H 118.28048243440713 98.76669750665388 4.245635916942547 H 0.0 **** 0.06
5290 H 116.81472350214494 99.08126775223388 5.205060316531672 H 0.0 **** 0.06
5291 C 46.479226870109386 5.432941151179563 106.20716432555076 C 0.0 **** -0.24
5292 H 47.105101311584775 5.208716075240062 107.0698212112323 H 0.0 **** 0.06
5293 H 45.65341922323762 6.075103580978194 106.51426509094586 H 0.0 **** 0.06
5294 H 46.08388190763637 4.5046875332479175 105.79419058569269 H 0.0 **** 0.06
5295 H 47.0744117783066 5.942863603552681 105.4490253046589 H 0.0 **** 0.06
5296 C 98.15378984192859 16.414350417961106 29.24270835950091 C 0.0 **** -0.24
5297 H 97.91488331660065 16.408781276037676 28.179222880419957 H 0.0 **** 0.06
5298 H 97.2463146983489 16.60117136119997 29.817257337738454 H 0.0 **** 0.06
5299 H 98.88102190104678 17.200156425543312 29.446640086555817 H 0.0 **** 0.06
5300 H 98.57259508627749 15.4493195765668 29.52683388173142 H 0.0 **** 0.06
5301 C 1.5767176899785795 86.77914932204982 106.67812433669576 C 0.0 **** -0.24
5302 H 1.577136222105878 87.86080029148911 106.54006361841851 H 0.0 **** 0.06
5303 H 0.7268484859313276 86.49272699265521 107.29842051181478 H 0.0 **** 0.06
5304 H 2.502868709143911 86.47537463601373 107.16771807085081 H 0.0 **** 0.06
5305 H 1.5017362808216603 86.28888322865612 105.70757364511294 H 0.0 **** 0.06
5306 C 63.256847332774356 68.36809747225662 90.76821305635144 C 0.0 **** -0.24
5307 H 63.98291637635826 69.12904842684007 90.4832182134788 H 0.0 **** 0.06
5308 H 63.607655734436946 67.84682785739987 91.65868435904551 H 0.0 **** 0.06
5309 H 63.141052772612056 67.6540985116056 89.9513495806224 H 0.0 **** 0.06
5310 H 62.29776832036758 68.84048344294034 90.97582457211183 H 0.0 **** 0.06
5311 C 15.35098410447904 49.296128578628526 55.9513913914229 C 0.0 **** -0.24
5312 H 15.358625569723955 50.35148363402138 55.67764139960504 H 0.0 **** 0.06
5313 H 14.690979486696506 48.75124481703844 55.27580398633576 H 0.0 **** 0.06
5314 H 14.99326403623698 49.188741080356095 56.975522241353914 H 0.0 **** 0.06
5315 H 16.3616314163786 48.894500707106374 55.87584810683994 H 0.0 **** 0.06
5316 C 115.23506693758254 3.54865906749842 97.00303398054479 C 0.0 **** -0.24
5317 H 114.20996018227265 3.299938956770916 96.7271568485736 H 0.0 **** 0.06
5318 H 115.22879606202358 4.17005587443046 97.89929759378003 H 0.0 **** 0.06
5319 H 115.70910710312616 4.093331074451356 96.18627755833887 H 0.0 **** 0.06
5320 H 115.79104128732276 2.6322506861178567 97.20052549420012 H 0.0 **** 0.06
5321 C 11.086902622637922 20.957786687075128 104.48974284082499 C 0.0 **** -0.24
5322 H 10.333915639306923 20.722793000526565 103.73645779500737 H 0.0 **** 0.06
5323 H 10.790808267323456 21.857350881996467 105.03097956480667 H 0.0 **** 0.06
5324 H 12.047450881488402 21.12614183622472 104.00319862616027 H 0.0 **** 0.06
5325 H 11.173600313679458 20.126481576563208 105.18826123387072 H 0.0 **** 0.06
5326 C 88.31441340712992 63.38151651598618 31.109929641584543 C 0.0 **** -0.24
5327 H 87.48299194716519 64.08269441218567 31.1875741250214 H 0.0 **** 0.06
5328 H 89.09612073011903 63.81315904624569 30.485336924772895 H 0.0 **** 0.06
5329 H 87.96393985973052 62.45136922539453 30.66245782722737 H 0.0 **** 0.06
5330 H 88.71239457762832 63.178677355859435 32.10402719811307 H 0.0 **** 0.06
5331 C 7.811625049073086 46.930463578456184 16.455000104251567 C 0.0 **** -0.24
5332 H 7.8487830877586084 46.645622371572614 15.403405843995117 H 0.0 **** 0.06
5333 H 8.234447862295763 46.12938956476393 17.063103810461257 H 0.0 **** 0.06
5334 H 6.775879501553831 47.101986900208004 16.74852971291105 H 0.0 **** 0.06
5335 H 8.388474955769567 47.842986511443215 16.605535115592915 H 0.0 **** 0.06
5336 C 122.53553855089672 105.02055420744861 88.77915687771485 C 0.0 **** -0.24
5337 H 123.06942071850233 104.44596854050894 88.02142215109444 H 0.0 **** 0.06
5338 H 123.18209437295822 105.16883226525354 89.64466479126355 H 0.0 **** 0.06
5339 H 121.64038010817919 104.47803041334348 89.08253944109902 H 0.0 **** 0.06
5340 H 122.25178008245963 105.98913319116812 88.36721197252785 H 0.0 **** 0.06
5341 C 77.07933342416527 97.7008276997947 44.71772926439553 C 0.0 **** -0.24
5342 H 77.29493740167533 97.7911530648814 43.65266306503486 H 0.0 **** 0.06
5343 H 76.44093241331046 98.52786338481584 45.030038221304096 H 0.0 **** 0.06
5344 H 78.01174796594535 97.72816993836332 45.28073297533166 H 0.0 **** 0.06
5345 H 76.5685389458229 96.7560432581408 44.90558321065396 H 0.0 **** 0.06
5346 C 98.82965486401491 68.94105801917283 118.97585374291646 C 0.0 **** -0.24
5347 H 98.08907032119626 69.5153324399543 118.41896493299626 H 0.0 **** 0.06
5348 H 99.57440304628622 69.61766232457643 119.39480416776931 H 0.0 **** 0.06
5349 H 99.31729792623186 68.2322554754598 118.30749617363685 H 0.0 **** 0.06
5350 H 98.33565843844934 68.39873868758633 119.78253213142395 H 0.0 **** 0.06
5351 C 30.207830423992448 97.51021803680392 72.40027497883733 C 0.0 **** -0.24
5352 H 30.911769321654504 96.7702026610635 72.77908878712748 H 0.0 **** 0.06
5353 H 29.231528320068946 97.35218677227853 72.86145734468093 H 0.0 **** 0.06
5354 H 30.119992938663756 97.40901425981392 71.31869508762362 H 0.0 **** 0.06
5355 H 30.567115006031486 98.51091051866999 72.64361412027978 H 0.0 **** 0.06
5356 C 29.42756396777105 50.224413323167425 34.88687662519291 C 0.0 **** -0.24
5357 H 29.99391829588648 50.03985854903341 35.79965426016631 H 0.0 **** 0.06
5358 H 30.052105218523145 50.761896826591 34.1741162475945 H 0.0 **** 0.06
5359 H 28.54611507076892 50.82124197152825 35.121022107762656 H 0.0 **** 0.06
5360 H 29.117716293693547 49.272498739534726 34.45380291662397 H 0.0 **** 0.06
5361 C 108.5614117868888 105.64170576695973 91.47105026446664 C 0.0 **** -0.24
5362 H 108.03313965959268 105.36114903809622 90.55888784429234 H 0.0 **** 0.06
5363 H 109.5412307558023 105.16383037287899 91.48445284200429 H 0.0 **** 0.06
5364 H 107.98594324791877 105.31780047175984 92.33754836767346 H 0.0 **** 0.06
5365 H 108.68408219427504 106.72486155728068 91.4998819468806 H 0.0 **** 0.06
5366 C 110.31086139006277 12.08024254957931 121.08449624043942 C 0.0 **** -0.24
5367 H 110.71101291164847 11.828297301336576 122.0669315283249 H 0.0 **** 0.06
5368 H 109.5080873705305 11.387321332974949 120.83168249562797 H 0.0 **** 0.06
5369 H 111.10338948132556 12.006314640780374 120.34029831106766 H 0.0 **** 0.06
5370 H 109.92222715087757 13.098711383096358 121.10177043416387 H 0.0 **** 0.06
5371 C 89.1102515701599 48.52093190850085 8.749476387121945 C 0.0 **** -0.24
5372 H 89.6718531117674 48.4678685556032 7.816454559730801 H 0.0 **** 0.06
5373 H 88.0620230868536 48.72609556618261 8.530262628935304 H 0.0 **** 0.06
5374 H 89.51490252825033 49.31786151705373 9.372683785371862 H 0.0 **** 0.06
5375 H 89.19259033933321 47.57027124111284 9.277018204382273 H 0.0 **** 0.06
5376 C 117.16632597180146 40.77009749449405 51.27421371998741 C 0.0 **** -0.24
5377 H 117.82330916883217 40.2736625318814 50.55914716149299 H 0.0 **** 0.06
5378 H 116.16041664743418 40.360533446503666 51.187551297823155 H 0.0 **** 0.06
5379 H 117.1440536002498 41.839824217172236 51.06409605451679 H 0.0 **** 0.06
5380 H 117.54039287097362 40.60596900376174 52.284444121660684 H 0.0 **** 0.06
5381 C 56.0097428142826 118.36962280921608 12.979693001413693 C 0.0 **** -0.24
5382 H 55.202900303004256 119.04272661004057 13.271936419976441 H 0.0 **** 0.06
5383 H 56.65534502380055 118.18287725979258 13.83744445548956 H 0.0 **** 0.06
5384 H 56.591085460470936 118.82665927738054 12.17854499229719 H 0.0 **** 0.06
5385 H 55.58728904074458 117.42755290480346 12.629536126989308 H 0.0 **** 0.06
5386 C 68.82250050335156 48.645769944864014 63.91515816303858 C 0.0 **** -0.24
5387 H 68.90885694256755 49.723208039024456 64.05096447537942 H 0.0 **** 0.06
5388 H 69.35275582503091 48.34980048920787 63.00921768100871 H 0.0 **** 0.06
5389 H 67.77159633683118 48.37313381164619 63.82630097688167 H 0.0 **** 0.06
5390 H 69.25877439331859 48.13592206621139 64.7739421427809 H 0.0 **** 0.06
5391 C 113.4738942814424 49.27478693199771 87.52016948274232 C 0.0 **** -0.24
5392 H 112.62367831960253 49.65539305296096 86.9536780575227 H 0.0 **** 0.06
5393 H 114.37252575923779 49.32768049185131 86.90460672619997 H 0.0 **** 0.06
5394 H 113.28650602654949 48.23857533434159 87.80249712625255 H 0.0 **** 0.06
5395 H 113.61084755158348 49.87649559686963 88.41767886797541 H 0.0 **** 0.06
5396 C 92.30341923564811 44.02037523496448 93.93936445400053 C 0.0 **** -0.24
5397 H 92.56260308762123 43.05880440250555 93.49597412087323 H 0.0 **** 0.06
5398 H 93.2151280703984 44.574804078511285 94.16161062276657 H 0.0 **** 0.06
5399 H 91.74456779267217 43.85549474235734 94.86126589376099 H 0.0 **** 0.06
5400 H 91.69190935769015 44.589503547121446 93.24013754586488 H 0.0 **** 0.06
5401 C 93.68480662161832 111.9003107652886 9.117319932647405 C 0.0 **** -0.24
5402 H 93.50440809387493 112.78276803104632 9.730832955591126 H 0.0 **** 0.06
5403 H 93.67626635931221 112.18277446710076 8.064121432424997 H 0.0 **** 0.06
5404 H 92.90405356595969 111.16361371214717 9.302834758387206 H 0.0 **** 0.06
5405 H 94.6554944264041 111.47432235870048 9.371594948709742 H 0.0 **** 0.06
5406 C 1.5881908810629568 51.040514881349615 103.78843073148434 C 0.0 **** -0.24
5407 H 0.6716614103620913 50.480908595891094 103.60252155297204 H 0.0 **** 0.06
5408 H 1.5515680339849212 51.47401571575505 104.78820547553812 H 0.0 **** 0.06
5409 H 1.683229313881938 51.83595149003642 103.04970617471821 H 0.0 **** 0.06
5410 H 2.4449699833876934 50.37057902326616 103.71421322341513 H 0.0 **** 0.06
5411 C 57.28231697389458 78.90959249467411 17.581982990385768 C 0.0 **** -0.24
5412 H 57.86364736375572 78.90347924244023 16.659671035592794 H 0.0 **** 0.06
5413 H 57.48724400062059 79.82692656610678 18.133626721762028 H 0.0 **** 0.06
5414 H 57.560132967276814 78.04893494525115 18.191617833616363 H 0.0 **** 0.06
5415 H 56.22021923157152 78.85768222163173 17.342484730379965 H 0.0 **** 0.06
5416 C 13.907117785877574 7.262869604681139 13.25466565828728 C 0.0 **** -0.24
5417 H 13.807589864934158 6.304632674486935 12.745179776211046 H 0.0 **** 0.06
5418 H 13.330386928289073 8.01913164798384 12.72165348550081 H 0.0 **** 0.06
5419 H 14.957177940111109 7.55495204132005 13.27712112557333 H 0.0 **** 0.06
5420 H 13.532711982528127 7.172267935849465 14.274083292127727 H 0.0 **** 0.06
5421 C 6.858740695125874 61.46096396992721 122.04958476564157 C 0.0 **** -0.24
5422 H 7.285009220453361 61.36964665447948 121.0506057899208 H 0.0 **** 0.06
5423 H 6.606161190974916 62.50354823585894 122.24216289740112 H 0.0 **** 0.06
5424 H 7.584798391576214 61.11949351060031 122.78742408246562 H 0.0 **** 0.06
5425 H 5.958400352140956 60.84962995738812 122.1166350333526 H 0.0 **** 0.06
5426 C 78.2511139636098 116.17889758210299 57.04089245098237 C 0.0 **** -0.24
5427 H 78.06295116279064 116.30423325580627 58.1072786130303 H 0.0 **** 0.06
5428 H 77.47360096303079 115.54852407466535 56.6078918147424 H 0.0 **** 0.06
5429 H 79.22290001336657 115.70851156298932 56.89607707484868 H 0.0 **** 0.06
5430 H 78.24260221048706 117.15313629686382 56.553232604319646 H 0.0 **** 0.06
5431 C 71.37649956708175 48.04926568903633 1.1215067988727583 C 0.0 **** -0.24
5432 H 70.7952558477512 48.67169445587061 0.44108348704770606 H 0.0 **** 0.06
5433 H 70.72514722549874 47.30031232132555 1.5728589124863106 H 0.0 **** 0.06
5434 H 71.80960252057308 48.67298111119041 1.9041112089833518 H 0.0 **** 0.06
5435 H 72.17424135732054 47.55422062334958 0.5691264545642412 H 0.0 **** 0.06
5436 C 17.27402748673545 101.54979103390905 13.923203177988114 C 0.0 **** -0.24
5437 H 16.346076953512636 101.10307370524215 13.56481066079175 H 0.0 **** 0.06
5438 H 18.12024904943081 101.08321295282659 13.41865022541998 H 0.0 **** 0.06
5439 H 17.359753900179555 101.39201079182499 14.997947818514149 H 0.0 **** 0.06
5440 H 17.268671103512958 102.61823999933225 13.710899743048003 H 0.0 **** 0.06
5441 C 83.33700076795364 15.036243464098561 85.69212988202486 C 0.0 **** -0.24
5442 H 83.71833576133493 14.02353883827817 85.5608527816882 H 0.0 **** 0.06
5443 H 83.02162014957864 15.173136044680234 86.72712952701042 H 0.0 **** 0.06
5444 H 82.48646040014273 15.193499392655411 85.02890416017266 H 0.0 **** 0.06
5445 H 84.12197581197958 15.753585702172984 85.45372481916087 H 0.0 **** 0.06
5446 C 113.56541820396063 3.69092642938989 66.01971001882495 C 0.0 **** -0.24
5447 H 113.40747109975081 4.455601632457405 66.78055775519503 H 0.0 **** 0.06
5448 H 114.34526616868965 4.019851323813125 65.33212414939877 H 0.0 **** 0.06
5449 H 112.63884017813848 3.5297547616014384 65.46887106388421 H 0.0 **** 0.06
5450 H 113.8704427933842 2.7611398347831155 66.49866568812973 H 0.0 **** 0.06
5451 C 56.4554252898738 69.9172402873856 38.72879838293284 C 0.0 **** -0.24
5452 H 56.3541651846751 68.84539516382642 38.55509693709797 H 0.0 **** 0.06
5453 H 56.05541024887553 70.1656646284639 39.71194742141114 H 0.0 **** 0.06
5454 H 55.903879924531836 70.46237246313581 37.96261867548935 H 0.0 **** 0.06
5455 H 57.50929431780553 70.19336940868834 38.68504309871287 H 0.0 **** 0.06
5456 C 19.213932171969873 58.1879601643746 36.82366788363473 C 0.0 **** -0.24
5457 H 20.108261999173067 58.65695895852264 37.23194096741014 H 0.0 **** 0.06
5458 H 18.581018325144953 57.839328573807904 37.640790809139844 H 0.0 **** 0.06
5459 H 19.50018678160285 57.34122319245671 36.200027369033364 H 0.0 **** 0.06
5460 H 18.664609820083967 58.912853767090326 36.22221716081691 H 0.0 **** 0.06
5461 C 22.182134586985512 26.61394177421616 92.80220664660106 C 0.0 **** -0.24
5462 H 23.172761300696422 26.54150041508666 93.25261839535686 H 0.0 **** 0.06
5463 H 22.159380625300898 26.030229148010108 91.88118840035162 H 0.0 **** 0.06
5464 H 21.960125277633054 27.65613214400463 92.57846646768594 H 0.0 **** 0.06
5465 H 21.43836434232452 26.223752020671952 93.49716096352148 H 0.0 **** 0.06
5466 C 87.70045815531842 114.77364897985595 105.3620925977061 C 0.0 **** -0.24
5467 H 88.33448212949631 114.5762804746131 104.49840057149308 H 0.0 **** 0.06
5468 H 87.83925183288542 115.80520118892541 105.68726042432223 H 0.0 **** 0.06
5469 H 87.97065596766329 114.09697839901824 106.17301540220106 H 0.0 **** 0.06
5470 H 86.65613221837876 114.61570264639614 105.08938561504452 H 0.0 **** 0.06
5471 C 82.58874772570604 0.43418461778620987 32.083601211908615 C 0.0 **** -0.24
5472 H 83.07899480567659 0.17799652488057127 33.02202280621128 H 0.0 **** 0.06
5473 H 82.69831129280266 -0.39163544280244267 31.380006293628128 H 0.0 **** 0.06
5474 H 83.04934086440107 1.3297837290809795 31.666350792698438 H 0.0 **** 0.06
5475 H 81.53033277065009 0.6205174160380675 32.26500563797296 H 0.0 **** 0.06
5476 C 43.550630546289725 59.634715370893986 22.419241697329063 C 0.0 **** -0.24
5477 H 42.76630603748916 58.92321397391518 22.677107016565316 H 0.0 **** 0.06
5478 H 43.09863284832525 60.55446602620208 22.047023270844058 H 0.0 **** 0.06
5479 H 44.189755673771245 59.205430906859874 21.646806782160922 H 0.0 **** 0.06
5480 H 44.14781001953133 59.8543782435967 23.304000751066617 H 0.0 **** 0.06
5481 C 118.52931203760444 19.37614697160882 115.90416706438555 C 0.0 **** -0.24
5482 H 118.7379942068799 18.86011223746442 114.9670007966252 H 0.0 **** 0.06
5483 H 117.6928767389593 20.060395443460436 115.76320712368499 H 0.0 **** 0.06
5484 H 119.4109072244629 19.937595240555197 116.21487998936931 H 0.0 **** 0.06
5485 H 118.27457673139538 18.64503664466679 116.67263138999346 H 0.0 **** 0.06
5486 C 101.96338084340027 8.860397009810047 110.8395909940947 C 0.0 **** -0.24
5487 H 101.46150483779724 8.06513855410153 111.39126227340063 H 0.0 **** 0.06
5488 H 101.57523444830312 9.826465004960138 111.16186835287183 H 0.0 **** 0.06
5489 H 101.78153650419358 8.731090593488439 109.77285523807883 H 0.0 **** 0.06
5490 H 103.0351573001964 8.81571709239822 111.03332701499814 H 0.0 **** 0.06
5491 C 36.25495037467135 62.83042986067768 4.140287544006121 C 0.0 **** -0.24
5492 H 36.97173234473178 62.51142925311157 3.3833245661795974 H 0.0 **** 0.06
5493 H 35.40071966499778 63.30251589692905 3.6535335493766006 H 0.0 **** 0.06
5494 H 36.73022077746009 63.54421199864289 4.8118243752421925 H 0.0 **** 0.06
5495 H 35.91682471876061 61.96432084267232 4.70881625494426 H 0.0 **** 0.06
5496 C 38.51120157468449 32.0676296129701 119.29135549348825 C 0.0 **** -0.24
5497 H 37.7160563026539 31.704712030165695 119.94368103041697 H 0.0 **** 0.06
5498 H 39.10669147875254 32.80978588638655 119.82311347481803 H 0.0 **** 0.06
5499 H 38.0725712982657 32.522003574863966 118.40264321135353 H 0.0 **** 0.06
5500 H 39.147395962961525 31.23357948419742 118.9966442047423 H 0.0 **** 0.06
5501 C 8.407676008339592 51.768565288459 107.93373678037662 C 0.0 **** -0.24
5502 H 7.584954072577034 52.468915960283084 107.78788655412438 H 0.0 **** 0.06
5503 H 9.19644530543411 51.97982844763703 107.21110988661385 H 0.0 **** 0.06
5504 H 8.046191451752463 50.750029421070394 107.79011804210742 H 0.0 **** 0.06
5505 H 8.80060084670231 51.8761773144297 108.94434520468536 H 0.0 **** 0.06
5506 C 71.85532227597592 49.28453051716565 41.9278779815474 C 0.0 **** -0.24
5507 H 71.0015572731915 49.91119799140236 41.66781459335938 H 0.0 **** 0.06
5508 H 71.80842547670298 48.35371013419737 41.364212550926666 H 0.0 **** 0.06
5509 H 71.83175634185996 49.06570395091791 42.99533864946159 H 0.0 **** 0.06
5510 H 72.77906349353601 49.81111823781583 41.68500904237452 H 0.0 **** 0.06
5511 C 23.2162750831977 69.25755662517929 4.486974043814474 C 0.0 **** -0.24
5512 H 23.720690746965715 69.70346156156569 3.628927769782992 H 0.0 **** 0.06
5513 H 23.8456184892118 69.35719010039338 5.370887903959918 H 0.0 **** 0.06
5514 H 23.030221685929632 68.20161913270596 4.289186565466192 H 0.0 **** 0.06
5515 H 22.267632570102904 69.76822788789838 4.656056907783103 H 0.0 **** 0.06
5516 C 113.39305679065346 107.64492532202935 7.226495199144978 C 0.0 **** -0.24
5517 H 112.83366614505177 106.70944567875218 7.243068100981986 H 0.0 **** 0.06
5518 H 114.22084110131374 107.58487572016188 7.933820402382423 H 0.0 **** 0.06
5519 H 112.73454976294441 108.4667258897029 7.50663979486572 H 0.0 **** 0.06
5520 H 113.78345021662557 107.81618695110356 6.2241364577783145 H 0.0 **** 0.06
5521 C 50.56274415177333 47.836435320171965 90.15536429576838 C 0.0 **** -0.24
5522 H 50.25433212461371 48.519191666111496 89.36271899120504 H 0.0 **** 0.06
5523 H 49.906275884366096 46.96607034666281 90.15882190149648 H 0.0 **** 0.06
5524 H 50.49844844160563 48.345257655286595 91.1172263471673 H 0.0 **** 0.06
5525 H 51.589633271227086 47.516971528715324 89.97973886526611 H 0.0 **** 0.06
5526 C 22.336099408569595 121.94784731187733 28.571186088300763 C 0.0 **** -0.24
5527 H 21.84074549110528 122.18998951949487 27.63134338206713 H 0.0 **** 0.06
5528 H 23.31698751067165 122.42241151478953 28.597738924993756 H 0.0 **** 0.06
5529 H 22.452642836802553 120.86685008873704 28.65197822972459 H 0.0 **** 0.06
5530 H 21.733823292144592 122.31079953600107 29.404094771950135 H 0.0 **** 0.06
5531 C 65.99878431562844 59.56183187356825 79.35476600350967 C 0.0 **** -0.24
5532 H 66.92613138433624 60.101761175790514 79.54271653196832 H 0.0 **** 0.06
5533 H 65.9726808660251 59.233864472795574 78.31593894203468 H 0.0 **** 0.06
5534 H 65.15044341252452 60.21779476250579 79.54987393260961 H 0.0 **** 0.06
5535 H 65.94442878794798 58.69313493474584 80.01234939302202 H 0.0 **** 0.06
5536 C 59.35756018939733 57.77586141139338 22.465788122241406 C 0.0 **** -0.24
5537 H 59.66444947811934 57.397882503553575 21.490306885043637 H 0.0 **** 0.06
5538 H 60.04342825368221 58.5628902153681 22.781316941995456 H 0.0 **** 0.06
5539 H 59.37543540677544 56.96438768845226 23.192333030827967 H 0.0 **** 0.06
5540 H 58.34723538308609 58.18027167557884 22.396557461718956 H 0.0 **** 0.06
5541 C 48.32110834725111 82.65420417930545 8.435720985350486 C 0.0 **** -0.24
5542 H 48.44581099261433 82.93411940744406 9.482318083043907 H 0.0 **** 0.06
5543 H 47.839842969568195 81.67777391536802 8.376237306192806 H 0.0 **** 0.06
5544 H 49.29793089445582 82.60826117254297 7.954287026412274 H 0.0 **** 0.06
5545 H 47.70275162130824 83.39641463114859 7.932746621162579 H 0.0 **** 0.06
5546 C 72.75863506311403 37.76529148771428 103.63457328672712 C 0.0 **** -0.24
5547 H 72.90995478240008 38.03666737133349 102.58934688554683 H 0.0 **** 0.06
5548 H 71.86704664237588 37.144190248585005 103.72221494682447 H 0.0 **** 0.06
5549 H 72.63228603957793 38.6696392087527 104.22950589809585 H 0.0 **** 0.06
5550 H 73.6252488338345 37.21116222213888 103.99482600848515 H 0.0 **** 0.06
5551 C 83.06986779043994 114.02558712481449 120.66514015056356 C 0.0 **** -0.24
5552 H 82.87640460443744 114.207219074374 119.60811010477845 H 0.0 **** 0.06
5553 H 82.74584665275164 114.88870750679233 121.24705701915767 H 0.0 **** 0.06
5554 H 84.13777089653519 113.86444909616283 120.81549388781195 H 0.0 **** 0.06
5555 H 82.51961546035776 113.14252118282462 120.98860664766121 H 0.0 **** 0.06
5556 C 41.5024168856431 20.443216529860422 100.37763199394395 C 0.0 **** -0.24
5557 H 41.435556657955345 19.622938465037436 99.66261707199725 H 0.0 **** 0.06
5558 H 42.54697745343108 20.733496967924907 100.49967833970457 H 0.0 **** 0.06
5559 H 41.100095621497985 20.12151403494633 101.33838681618347 H 0.0 **** 0.06
5560 H 40.92914321752218 21.293723375467067 100.01022478855386 H 0.0 **** 0.06
5561 C 31.339221865484674 92.50395581182389 105.51194310615404 C 0.0 **** -0.24
5562 H 32.16587121565567 92.7806209875906 106.16644745935668 H 0.0 **** 0.06
5563 H 31.251532035934517 93.23538461643082 104.7077446387895 H 0.0 **** 0.06
5564 H 30.413246111192393 92.48220092692 106.08690167409497 H 0.0 **** 0.06
5565 H 31.5267272145245 91.51679260701982 105.08771870872403 H 0.0 **** 0.06
5566 C 39.45495085621974 43.960169689907374 55.24536538459415 C 0.0 **** -0.24
5567 H 39.24693894529619 42.900256323681255 55.096703201394945 H 0.0 **** 0.06
5568 H 40.42668680800284 44.07502830575572 55.72504592013661 H 0.0 **** 0.06
5569 H 38.68218881535873 44.39480265832847 55.87988153795732 H 0.0 **** 0.06
5570 H 39.4628599766429 44.46804575891527 54.28094688027329 H 0.0 **** 0.06
5571 C 72.23350376156404 29.784513752964415 50.8534296231781 C 0.0 **** -0.24
5572 H 72.20353280754586 30.87106152683512 50.925681329912095 H 0.0 **** 0.06
5573 H 71.40041285544504 29.359967101350207 51.41328439825804 H 0.0 **** 0.06
5574 H 73.17370787280234 29.418401024084233 51.266839166354515 H 0.0 **** 0.06
5575 H 72.15754322516142 29.48820147944346 49.80726245823209 H 0.0 **** 0.06
5576 C 22.46899782399376 11.438370465786889 81.80142764955754 C 0.0 **** -0.24
5577 H 21.54047783817282 11.061954343475175 81.37400846268177 H 0.0 **** 0.06
5578 H 22.362918753676738 11.525193748216875 82.88242053319382 H 0.0 **** 0.06
5579 H 22.69265725870342 12.41720668398617 81.37792583156437 H 0.0 **** 0.06
5580 H 23.281041695069803 10.748475477062453 81.56952374876205 H 0.0 **** 0.06
5581 C 46.89033873361842 52.222383544755246 45.522591306208085 C 0.0 **** -0.24
5582 H 46.99394669763052 51.57580794456632 46.3936016708484 H 0.0 **** 0.06
5583 H 47.84892678188368 52.294251273165415 45.00804905495261 H 0.0 **** 0.06
5584 H 46.5735382033331 53.21537564407532 45.84265670763608 H 0.0 **** 0.06
5585 H 46.14494325162656 51.804099317213954 44.84605779139537 H 0.0 **** 0.06
5586 C 42.74767444149683 73.47765307163775 96.78999361772793 C 0.0 **** -0.24
5587 H 41.67456556850033 73.42967160839686 96.97895105110092 H 0.0 **** 0.06
5588 H 43.1998429871698 74.21681139420866 97.45094540438481 H 0.0 **** 0.06
5589 H 42.920228339595155 73.76238966535459 95.75237909447162 H 0.0 **** 0.06
5590 H 43.193311793062264 72.50068108386648 96.9782668636197 H 0.0 **** 0.06
5591 C 36.396611145120914 56.53210283722407 43.23997384327936 C 0.0 **** -0.24
5592 H 36.642462306085235 57.4701821927287 43.7377660122408 H 0.0 **** 0.06
5593 H 36.39571741982843 55.723406582003335 43.970469051275415 H 0.0 **** 0.06
5594 H 37.137885416823565 56.325941901781746 42.468585632096904 H 0.0 **** 0.06
5595 H 35.41003746767825 56.61202401476915 42.78407619883245 H 0.0 **** 0.06
5596 C 104.61689779816447 16.770812011802207 82.896709843503 C 0.0 **** -0.24
5597 H 104.92637749809799 17.739838004342573 82.50526553886722 H 0.0 **** 0.06
5598 H 105.49913572760231 16.169209620326967 83.11573612723554 H 0.0 **** 0.06
5599 H 104.00181673899208 16.260125153287447 82.1563242094943 H 0.0 **** 0.06
5600 H 104.03964152760908 16.916694570058098 83.8103827876338 H 0.0 **** 0.06
5601 C 116.10342877142345 71.97875059873226 107.76135416807642 C 0.0 **** -0.24
5602 H 115.34825063477422 72.15301212254732 108.52716064341172 H 0.0 **** 0.06
5603 H 116.50253171733893 70.96949800283011 107.86725882440697 H 0.0 **** 0.06
5604 H 116.91067297750897 72.70211597312837 107.87612364283643 H 0.0 **** 0.06
5605 H 115.65365924996317 72.09051032050778 106.77472006363672 H 0.0 **** 0.06
5606 C 5.553181770259556 47.96383216001621 109.1477168701253 C 0.0 **** -0.24
5607 H 4.9495599146667075 48.371546299145166 108.33703103261213 H 0.0 **** 0.06
5608 H 4.995887027547184 48.02938143301272 110.08325664865104 H 0.0 **** 0.06
5609 H 6.478179175517312 48.53430753242601 109.235388937864 H 0.0 **** 0.06
5610 H 5.788790320300478 46.92102851830217 108.93661535065004 H 0.0 **** 0.06
5611 C 113.37174828677831 118.62843327534796 65.51429213421767 C 0.0 **** -0.24
5612 H 112.39906419919589 119.11403494535563 65.4350494923384 H 0.0 **** 0.06
5613 H 114.03660627411193 119.02127950634258 64.74441847289003 H 0.0 **** 0.06
5614 H 113.25350978992708 117.55394117459775 65.37921060918555 H 0.0 **** 0.06
5615 H 113.79680971427803 118.82711463003199 66.49829123253075 H 0.0 **** 0.06
5616 C 51.5243320360112 81.09509635376946 48.03068259360775 C 0.0 **** -0.24
5617 H 50.45585172109463 81.11008393942546 48.24955923929299 H 0.0 **** 0.06
5618 H 51.93400882544219 82.09733520780861 48.155850114987615 H 0.0 **** 0.06
5619 H 51.68072929602336 80.76328014925667 47.00433391865685 H 0.0 **** 0.06
5620 H 52.02410848306158 80.40933492498499 48.71438753026028 H 0.0 **** 0.06
5621 C 106.34671520717407 119.98243812103149 108.49535052831904 C 0.0 **** -0.24
5622 H 106.13949786259622 119.47955184117455 107.55159209338443 H 0.0 **** 0.06
5623 H 105.40709003389719 120.27486973434921 108.96422364596854 H 0.0 **** 0.06
5624 H 106.95148316363722 120.86966205575693 108.30903066897031 H 0.0 **** 0.06
5625 H 106.88787432056431 119.3059535742519 109.15627120134833 H 0.0 **** 0.06
5626 C 86.62799994909562 26.677704701721325 105.19114349096648 C 0.0 **** -0.24
5627 H 85.710659763048 26.364617259679335 104.69373934759582 H 0.0 **** 0.06
5628 H 86.73286489502527 27.760272796447225 105.11371342134257 H 0.0 **** 0.06
5629 H 87.48217340148597 26.19556617439224 104.71555662317013 H 0.0 **** 0.06
5630 H 86.5875623499461 26.390999481900224 106.24163746307539 H 0.0 **** 0.06
5631 C 122.41869142378427 86.26233990015443 81.09212123728561 C 0.0 **** -0.24
5632 H 121.7528703483785 86.32505022077714 80.23144800470988 H 0.0 **** 0.06
5633 H 122.54541786137635 85.21764663855511 81.37761405975893 H 0.0 **** 0.06
5634 H 121.98731608288243 86.81728228106181 81.92475497098577 H 0.0 **** 0.06
5635 H 123.38718054446338 86.68961750801104 80.83365782562046 H 0.0 **** 0.06
5636 C 58.57291773809999 41.55519760163372 51.57204016764459 C 0.0 **** -0.24
5637 H 58.20643269788576 41.72837327502541 50.560387762336006 H 0.0 **** 0.06
5638 H 58.91075053114247 40.52198630790488 51.66426404713127 H 0.0 **** 0.06
5639 H 57.770964461441906 41.740853709201765 52.28612659619287 H 0.0 **** 0.06
5640 H 59.40510940926947 42.22917763375456 51.77681242924089 H 0.0 **** 0.06
5641 C 60.630776216023776 89.5803166340558 68.31577865463385 C 0.0 **** -0.24
5642 H 61.56133654596141 89.11070932519948 67.99716266502345 H 0.0 **** 0.06
5643 H 60.25989988870481 90.22671681777211 67.52019442153629 H 0.0 **** 0.06
5644 H 60.81220995899133 90.17367141539995 69.2117521971532 H 0.0 **** 0.06
5645 H 59.89164618498603 88.8101256380308 68.53298191865451 H 0.0 **** 0.06
5646 C 85.49536111045066 14.14572377363254 96.39928596794688 C 0.0 **** -0.24
5647 H 84.48318602062412 13.947173679263955 96.04521080884511 H 0.0 **** 0.06
5648 H 86.21446791000125 13.775182261588355 95.66915647689376 H 0.0 **** 0.06
5649 H 85.65167303457439 13.641404494683371 97.35281748210478 H 0.0 **** 0.06
5650 H 85.62917350173471 15.219689693510162 96.5301185758122 H 0.0 **** 0.06
5651 C 110.6432430798585 51.45780144131459 24.1731931283403 C 0.0 **** -0.24
5652 H 111.26144746009071 50.648505842654856 24.562223597071863 H 0.0 **** 0.06
5653 H 109.60281343421528 51.13542546984911 24.138099419729713 H 0.0 **** 0.06
5654 H 110.97680132887497 51.71966630246601 23.169777302436955 H 0.0 **** 0.06
5655 H 110.73283870523036 52.32805178405317 24.824065404559434 H 0.0 **** 0.06
5656 C 17.127636596150307 63.15754987048308 61.01012416357764 C 0.0 **** -0.24
5657 H 17.696067203382007 64.07592062899425 60.86957736151774 H 0.0 **** 0.06
5658 H 17.69531370729885 62.31464717555495 60.617095661087035 H 0.0 **** 0.06
5659 H 16.1776238988361 63.234072816298436 60.480402663087034 H 0.0 **** 0.06
5660 H 16.939260945144742 63.00638791153577 62.073086716962166 H 0.0 **** 0.06
5661 C 77.94656869567734 28.833086243171948 97.41061561042793 C 0.0 **** -0.24
5662 H 77.26671171940563 27.992873641710815 97.26281139720166 H 0.0 **** 0.06
5663 H 78.8041658609369 28.50564669283311 97.99903994252213 H 0.0 **** 0.06
5664 H 77.42669559933012 29.631803603449953 97.93939745052697 H 0.0 **** 0.06
5665 H 78.28694606982185 29.19916716877539 96.44287927542351 H 0.0 **** 0.06
5666 C 52.3946766623869 87.20131956031159 43.96259327733651 C 0.0 **** -0.24
5667 H 53.466219579887905 87.23085132482555 44.16114901072308 H 0.0 **** 0.06
5668 H 52.13180440621923 86.23523586162463 43.53220955685305 H 0.0 **** 0.06
5669 H 52.13365078211106 87.9947687378357 43.26188461389927 H 0.0 **** 0.06
5670 H 51.84833226024145 87.34530554142975 44.89440254207665 H 0.0 **** 0.06
5671 C 33.77848131162264 52.90381101865236 47.01568059370282 C 0.0 **** -0.24
5672 H 34.22447281324358 52.68995056792444 46.04379322649538 H 0.0 **** 0.06
5673 H 32.73820617590886 52.57551785767025 47.016704601052275 H 0.0 **** 0.06
5674 H 33.821576514294804 53.97571555081815 47.2076054784808 H 0.0 **** 0.06
5675 H 34.32821414507913 52.37228754468636 47.79166271302776 H 0.0 **** 0.06
5676 C 113.73697897099439 14.729030695518105 114.95769962740172 C 0.0 **** -0.24
5677 H 114.26509579502917 13.976964671945723 115.5441423277232 H 0.0 **** 0.06
5678 H 113.43978149008629 14.300071197920886 114.00042947441304 H 0.0 **** 0.06
5679 H 114.39435372235366 15.581366095576016 114.78562256365726 H 0.0 **** 0.06
5680 H 112.85074245113422 15.056431105028338 115.5009256284751 H 0.0 **** 0.06
5681 C 108.40700140218567 106.59247541537772 85.52503053589832 C 0.0 **** -0.24
5682 H 109.32265936949209 106.10756106931859 85.86582571970878 H 0.0 **** 0.06
5683 H 107.5443638074254 106.04684791812788 85.90802367513669 H 0.0 **** 0.06
5684 H 108.38191678772277 106.59523314315071 84.43491819706807 H 0.0 **** 0.06
5685 H 108.38164146534689 107.6184290959617 85.8914777955053 H 0.0 **** 0.06
5686 C 111.2802689360231 0.0951445762158869 15.888681439272887 C 0.0 **** -0.24
5687 H 111.35373153506924 1.1794683479087666 15.8067857810276 H 0.0 **** 0.06
5688 H 112.12007684600758 -0.28320262175452626 16.47153114637726 H 0.0 **** 0.06
5689 H 111.29951769895189 -0.34733156371416385 14.8924740895487 H 0.0 **** 0.06
5690 H 110.34532058071443 -0.1683382422604609 16.385383764903935 H 0.0 **** 0.06
5691 C 71.49436008964267 97.52272809903184 72.53240921969527 C 0.0 **** -0.24
5692 H 71.46168012569389 97.19159623209916 73.57072393685213 H 0.0 **** 0.06
5693 H 70.49243543053034 97.80756348113576 72.21133993141798 H 0.0 **** 0.06
5694 H 71.86104769199801 96.71098745282214 71.90433755224113 H 0.0 **** 0.06
5695 H 72.16155264907061 98.37963411125943 72.44528388396658 H 0.0 **** 0.06
5696 C 17.25108623549312 11.642571679797769 50.7698900545127 C 0.0 **** -0.24
5697 H 16.631629485921138 11.683528964526687 51.665810554321155 H 0.0 **** 0.06
5698 H 17.695550364103 12.621050464917317 50.59115128162739 H 0.0 **** 0.06
5699 H 16.635909151937312 11.360422379400404 49.91573865712766 H 0.0 **** 0.06
5700 H 18.040809398457327 10.904379445719599 50.90885496996444 H 0.0 **** 0.06
5701 C 102.02289864967342 17.237248900181726 103.31855301875206 C 0.0 **** -0.24
5702 H 102.48565237675062 18.188897145367307 103.58031688742116 H 0.0 **** 0.06
5703 H 100.97323717965675 17.24994734841937 103.61586325238912 H 0.0 **** 0.06
5704 H 102.5377453359062 16.42883088517769 103.83646695190359 H 0.0 **** 0.06
5705 H 102.0939051372147 17.083530843553604 102.24152814697803 H 0.0 **** 0.06
5706 C 43.903793857082604 87.81722911276788 99.64005956804937 C 0.0 **** -0.24
5707 H 43.394366620655035 88.05455936779651 100.57353849166341 H 0.0 **** 0.06
5708 H 44.87039730840266 88.3225591334396 99.61533786571877 H 0.0 **** 0.06
5709 H 43.29717287002978 88.1523894505736 98.79893162425842 H 0.0 **** 0.06
5710 H 44.05564186294126 86.7397467888739 99.57209810134543 H 0.0 **** 0.06
5711 C 122.99226434473718 79.31589108654349 79.73844689550117 C 0.0 **** -0.24
5712 H 122.93132878072983 78.51888009128707 80.47961829725807 H 0.0 **** 0.06
5713 H 124.03922838654617 79.53938692852435 79.5319410979456 H 0.0 **** 0.06
5714 H 122.49922718055917 80.20906490849455 80.12471065219768 H 0.0 **** 0.06
5715 H 122.50055062566996 78.99721629312272 78.82004740105157 H 0.0 **** 0.06
5716 C 63.01333249973706 88.76629446013541 99.05355067166073 C 0.0 **** -0.24
5717 H 63.70276260969908 88.44020573880304 98.2753527983013 H 0.0 **** 0.06
5718 H 63.00798413736223 89.85576254100353 99.09984815572098 H 0.0 **** 0.06
5719 H 63.333940406523595 88.3632837745114 100.01441834431601 H 0.0 **** 0.06
5720 H 62.01053335727701 88.40677662108044 98.8237453472137 H 0.0 **** 0.06
5721 C 35.57936411886514 51.60747627936816 21.891840344253126 C 0.0 **** -0.24
5722 H 35.182830037842294 52.14536063761945 21.030518183492433 H 0.0 **** 0.06
5723 H 34.810100354929155 50.947631420650175 22.293928357450397 H 0.0 **** 0.06
5724 H 35.882013691928314 52.32144228537082 22.657572975909176 H 0.0 **** 0.06
5725 H 36.44184077810566 51.016123838382995 21.584991864793068 H 0.0 **** 0.06
5726 C 60.869828586174265 68.3981879517577 95.8487167512489 C 0.0 **** -0.24
5727 H 61.02559599900212 69.19103806447825 95.11644974266073 H 0.0 **** 0.06
5728 H 61.830625900907705 67.9575379857437 96.11618987957267 H 0.0 **** 0.06
5729 H 60.22464593971824 67.63089541333628 95.41972809174358 H 0.0 **** 0.06
5730 H 60.398957132454456 68.81406977555207 96.73848469660949 H 0.0 **** 0.06
5731 C 12.637980312331251 56.30298784413688 11.880021890733872 C 0.0 **** -0.24
5732 H 13.154660203178537 57.142378863383826 12.34471456401954 H 0.0 **** 0.06
5733 H 12.19731972788506 55.67481943315666 12.654204947681677 H 0.0 **** 0.06
5734 H 13.348345348388818 55.71679732748184 11.296652432149529 H 0.0 **** 0.06
5735 H 11.852551224327811 56.67776538675281 11.224742121671909 H 0.0 **** 0.06
5736 C 48.94000710207641 17.393435884087864 29.757360674307733 C 0.0 **** -0.24
5737 H 48.800848638572546 17.55752234255624 28.689286141313914 H 0.0 **** 0.06
5738 H 49.896693439806484 17.814544436054177 30.068411492908353 H 0.0 **** 0.06
5739 H 48.9292210673928 16.323391806881034 29.964372833299763 H 0.0 **** 0.06
5740 H 48.1332652625338 17.878284950859836 30.307372229708903 H 0.0 **** 0.06
5741 C 55.323089183976776 90.61034309234795 33.04622576144001 C 0.0 **** -0.24
5742 H 54.28660792722383 90.91512232008282 33.19331067624043 H 0.0 **** 0.06
5743 H 55.35135992083484 89.68501579721507 32.47047938373652 H 0.0 **** 0.06
5744 H 55.79503909644352 90.45088584357627 34.015266691849405 H 0.0 **** 0.06
5745 H 55.85684514312223 91.39227471918483 32.50571745127303 H 0.0 **** 0.06
5746 C 59.64228445769338 43.53712349210477 10.56759097254232 C 0.0 **** -0.24
5747 H 59.59892956747193 42.48356662208877 10.845402117953086 H 0.0 **** 0.06
5748 H 60.684191784994724 43.85635731240788 10.517116229853144 H 0.0 **** 0.06
5749 H 59.1162769353779 44.13132110092576 11.315393113041267 H 0.0 **** 0.06
5750 H 59.17090273870194 43.67595731630567 9.595277193343549 H 0.0 **** 0.06
5751 C 55.31583458265271 28.87309170645875 62.31536899501202 C 0.0 **** -0.24
5752 H 56.0170345074348 28.703593079786913 61.4977641819944 H 0.0 **** 0.06
5753 H 55.2611628895188 27.978805176991045 62.93725836645717 H 0.0 **** 0.06
5754 H 54.32904734684382 29.093978794791383 61.90857599097308 H 0.0 **** 0.06
5755 H 55.65777865738829 29.71452090888272 62.91782052171129 H 0.0 **** 0.06
5756 C 93.64799246511093 92.83187283249771 97.32504642851062 C 0.0 **** -0.24
5757 H 94.54320142907507 92.85571564587849 96.70375251155198 H 0.0 **** 0.06
5758 H 93.1656646336749 93.8095883372784 97.30426158034646 H 0.0 **** 0.06
5759 H 93.9232428264376 92.58444379355609 98.34969258743061 H 0.0 **** 0.06
5760 H 92.95954457761586 92.07925846248008 96.94121208575268 H 0.0 **** 0.06
5761 C 82.19808020676047 51.353311656579564 26.961270089264673 C 0.0 **** -0.24
5762 H 82.95672626358825 50.64637123591709 26.624678146424174 H 0.0 **** 0.06
5763 H 81.6316885509791 50.91392072938655 27.782797841879358 H 0.0 **** 0.06
5764 H 81.52441619407844 51.58187625942057 26.135864317790407 H 0.0 **** 0.06
5765 H 82.68113606423753 52.26986491755707 27.30083583902052 H 0.0 **** 0.06
5766 C 72.18644206957612 12.531556270231704 2.7806830749475466 C 0.0 **** -0.24
5767 H 72.21179989714692 11.842413976026421 1.9368421180566884 H 0.0 **** 0.06
5768 H 73.17753047720716 12.96084929348342 2.9286458868455156 H 0.0 **** 0.06
5769 H 71.8853953518532 11.993597649817389 3.680264181016696 H 0.0 **** 0.06
5770 H 71.47186109085901 13.328509681256605 2.577754687874574 H 0.0 **** 0.06
5771 C 67.61590929006887 102.57810999047102 95.41534389035128 C 0.0 **** -0.24
5772 H 67.01427066582211 103.44863716996741 95.67802456985379 H 0.0 **** 0.06
5773 H 68.67192877475405 102.84843303428998 95.43047753812039 H 0.0 **** 0.06
5774 H 67.34278054544274 102.23597618100366 94.41767922089834 H 0.0 **** 0.06
5775 H 67.43477279553693 101.77999258539188 96.13598661743741 H 0.0 **** 0.06
5776 C 0.890001326886491 66.71909879663684 46.65454744994781 C 0.0 **** -0.24
5777 H 1.7281191529253448 66.05392315789965 46.445402487566525 H 0.0 **** 0.06
5778 H -0.04214264292509995 66.15626722672255 46.6019169577408 H 0.0 **** 0.06
5779 H 0.8721303686984498 67.52305598747853 45.918113325647 H 0.0 **** 0.06
5780 H 1.0028040993167906 67.14283589938549 47.652470849192554 H 0.0 **** 0.06
5781 C 97.28252258898763 85.12450174492496 43.59504878264717 C 0.0 **** -0.24
5782 H 96.86365815972022 84.11879827320315 43.6228660477798 H 0.0 **** 0.06
5783 H 97.22398317717199 85.56937776644952 44.58853566403571 H 0.0 **** 0.06
5784 H 96.71624422584136 85.73328008283231 42.89046703638767 H 0.0 **** 0.06
5785 H 98.3240729862465 85.07549808994213 43.27891579043695 H 0.0 **** 0.06
5786 C 101.5230999046351 23.339470514451648 61.15678104123454 C 0.0 **** -0.24
5787 H 101.6785417823695 23.93234744712116 62.05762476975127 H 0.0 **** 0.06
5788 H 102.03781766560394 22.38380933491463 61.25704096728872 H 0.0 **** 0.06
5789 H 101.91949339994102 23.877262815132326 60.2954818193117 H 0.0 **** 0.06
5790 H 100.4560283607849 23.16478998193641 61.01618664994207 H 0.0 **** 0.06
5791 C 101.18610515550785 117.30240665723582 30.657173451237902 C 0.0 **** -0.24
5792 H 101.31021420153854 116.22085094280231 30.605803495336147 H 0.0 **** 0.06
5793 H 101.63142447329574 117.67533810908745 31.578942124913866 H 0.0 **** 0.06
5794 H 100.12314531370953 117.54674736318498 30.641720504593636 H 0.0 **** 0.06
5795 H 101.67744877545405 117.7648575536208 29.801302955145886 H 0.0 **** 0.06
5796 C 57.04668216987517 119.00619456376018 106.47901075981228 C 0.0 **** -0.24
5797 H 57.3773088572392 118.88247377135632 107.510439325286 H 0.0 **** 0.06
5798 H 56.38186156559567 119.86772137308002 106.41082081267899 H 0.0 **** 0.06
5799 H 56.51588060563836 118.10979503790689 106.15918226184296 H 0.0 **** 0.06
5800 H 57.91362522912601 119.16415107654939 105.836942838085 H 0.0 **** 0.06
5801 C 72.88790809614605 45.93378391818867 120.27503627638555 C 0.0 **** -0.24
5802 H 73.47535718566951 46.64964499435271 119.7006834596338 H 0.0 **** 0.06
5803 H 73.25701059043452 44.92544938758347 120.08401375620909 H 0.0 **** 0.06
5804 H 71.84158083931517 46.000727664400394 119.978508932447 H 0.0 **** 0.06
5805 H 72.98047823373366 46.159288778003805 121.33803021017668 H 0.0 **** 0.06
5806 C 25.734585013629413 62.65372815595612 9.964720744709126 C 0.0 **** -0.24
5807 H 25.558079021292855 61.965459495854304 9.137172752673166 H 0.0 **** 0.06
5808 H 25.731153721367463 63.67777301508636 9.591119261689926 H 0.0 **** 0.06
5809 H 26.70200373964451 62.43457795216051 10.417516448345125 H 0.0 **** 0.06
5810 H 24.948850738000402 62.53423701284299 10.709953704465704 H 0.0 **** 0.06
5811 C 24.678519472427325 59.09758049861922 107.47384594982546 C 0.0 **** -0.24
5812 H 25.298043775437094 59.32315745841143 108.34213761068366 H 0.0 **** 0.06
5813 H 24.909012163094587 59.79770255797858 106.6708410125613 H 0.0 **** 0.06
5814 H 23.626796224139042 59.18910061806696 107.74575586417507 H 0.0 **** 0.06
5815 H 24.880621470542025 58.08003299899303 107.13943067757245 H 0.0 **** 0.06
5816 C 64.53978436528647 0.540954503366919 3.2079782858062913 C 0.0 **** -0.24
5817 H 65.38170025486536 0.753017199167914 3.867676552316425 H 0.0 **** 0.06
5818 H 63.6079559628478 0.6448888415170018 3.7651517474698153 H 0.0 **** 0.06
5819 H 64.62421184438236 -0.4769276851984756 2.8276040661116895 H 0.0 **** 0.06
5820 H 64.54548281456061 1.2428424706714623 2.373921016588497 H 0.0 **** 0.06
5821 C 85.49705584771397 35.11426019666533 77.33125493354815 C 0.0 **** -0.24
5822 H 86.08420229175721 35.79262127499845 77.95023070421564 H 0.0 **** 0.06
5823 H 86.03226095003868 34.17134896245176 77.21705057764272 H 0.0 **** 0.06
5824 H 85.33892757386245 35.56355592374322 76.35101389866593 H 0.0 **** 0.06
5825 H 84.5334860678942 34.93134111992002 77.80721146208604 H 0.0 **** 0.06
5826 C 14.446533245298156 74.61395599762977 7.269438658577357 C 0.0 **** -0.24
5827 H 13.492475322792984 74.9209623690989 7.697053244654114 H 0.0 **** 0.06
5828 H 15.224376307880163 75.31555258834123 7.575502792056483 H 0.0 **** 0.06
5829 H 14.371387132862594 74.60631004483992 6.181901842441974 H 0.0 **** 0.06
5830 H 14.698566485852723 73.61459330922588 7.623217024769659 H 0.0 **** 0.06
5831 C 74.4555547068299 21.262668259598513 4.717482510955762 C 0.0 **** -0.24
5832 H 74.14429058145245 22.173968788446203 4.2064563679355444 H 0.0 **** 0.06
5833 H 74.20669272377296 20.39791151255406 4.100595725580831 H 0.0 **** 0.06
5834 H 73.93813436735783 21.187331909894795 5.67376349553092 H 0.0 **** 0.06
5835 H 75.53088478632199 21.290583288216567 4.887292884443838 H 0.0 **** 0.06
5836 C 115.66105610301113 2.2345055184434273 3.0741910699646127 C 0.0 **** -0.24
5837 H 115.76871760686262 1.3528064480806847 3.705863018958219 H 0.0 **** 0.06
5838 H 114.60656112508883 2.3858790519333297 2.837883554127158 H 0.0 **** 0.06
5839 H 116.22304940493416 2.091355654675084 2.151084699604537 H 0.0 **** 0.06
5840 H 116.04424981874823 3.108021713574601 3.6013966509731574 H 0.0 **** 0.06
5841 C 24.05046162620509 48.0356814889243 36.85836493730508 C 0.0 **** -0.24
5842 H 24.825575368261546 47.30307677736056 36.635219944624936 H 0.0 **** 0.06
5843 H 24.270726752084364 48.51988125419547 37.81029646022069 H 0.0 **** 0.06
5844 H 23.084232658565902 47.534636220402604 36.921704954469554 H 0.0 **** 0.06
5845 H 24.01875032070349 48.78564124156418 36.067714891578945 H 0.0 **** 0.06
5846 C 36.59567803792129 24.302770002315754 75.89609569650443 C 0.0 **** -0.24
5847 H 35.94848553390153 24.806521148597938 75.17663098734141 H 0.0 **** 0.06
5848 H 37.638099246040184 24.476610049649366 75.62998416519349 H 0.0 **** 0.06
5849 H 36.38978747035523 23.23256550101837 75.88167010228881 H 0.0 **** 0.06
5850 H 36.403369905955344 24.696021985097957 76.89415538847143 H 0.0 **** 0.06
5851 C 106.82508876607722 108.78433468722983 99.8065638566232 C 0.0 **** -0.24
5852 H 107.14728993364741 109.01000715415341 98.79007674593134 H 0.0 **** 0.06
5853 H 107.07089861675172 109.62231323026253 100.46037062668097 H 0.0 **** 0.06
5854 H 107.33484565767401 107.88767835380975 100.15847864188726 H 0.0 **** 0.06
5855 H 105.74775620080305 108.61868131418527 99.81743659080976 H 0.0 **** 0.06
5856 C 123.55277105738992 43.59268925864865 113.4782247227493 C 0.0 **** -0.24
5857 H 124.2266852348254 44.3637218797096 113.85344620087497 H 0.0 **** 0.06
5858 H 124.13480208399574 42.73712223961829 113.1362237774911 H 0.0 **** 0.06
5859 H 122.9695978922934 43.991929635226825 112.64890401100078 H 0.0 **** 0.06
5860 H 122.88048758468045 43.27885474558198 114.27778937099097 H 0.0 **** 0.06
5861 C 23.64020094441298 124.27597037647543 1.6310431172796882 C 0.0 **** -0.24
5862 H 24.5074549244394 123.72177536261448 1.272664677570333 H 0.0 **** 0.06
5863 H 23.28262425928665 123.83031989291993 2.559225891159741 H 0.0 **** 0.06
5864 H 22.8492658396641 124.23771120616044 0.8813207300592012 H 0.0 **** 0.06
5865 H 23.92135836653648 125.31413087558553 1.8099677626663038 H 0.0 **** 0.06
5866 C 122.28862622963474 43.73840245149469 19.34476129326808 C 0.0 **** -0.24
5867 H 121.98352753772012 44.60287190320298 18.755303025887343 H 0.0 **** 0.06
5868 H 122.73873315776777 42.99212045807525 18.689856976347528 H 0.0 **** 0.06
5869 H 121.41707622195592 43.310434276309735 19.840329194920315 H 0.0 **** 0.06
5870 H 123.01668696189289 44.04969982905996 20.094736153976044 H 0.0 **** 0.06
5871 C 48.04028863752859 77.84128126307314 92.32591007082071 C 0.0 **** -0.24
5872 H 47.1423592064183 77.47160368325883 92.82075541549943 H 0.0 **** 0.06
5873 H 47.99674021750323 77.59683010802225 91.26460527454867 H 0.0 **** 0.06
5874 H 48.91900168429616 77.37388489529027 92.77128381223068 H 0.0 **** 0.06
5875 H 48.102557521373036 78.92305084575112 92.4489178910022 H 0.0 **** 0.06
5876 C 16.445291948382327 55.0138539554315 0.5938225578128282 C 0.0 **** -0.24
5877 H 15.729911341127156 55.426826758950824 1.3052470271152998 H 0.0 **** 0.06
5878 H 17.38240355529452 54.795496197261514 1.1064729875105996 H 0.0 **** 0.06
5879 H 16.625370822167703 55.73646804692436 -0.20220896782781494 H 0.0 **** 0.06
5880 H 16.04280100424777 54.09548171559811 0.16625831440539685 H 0.0 **** 0.06
5881 C 43.363829694681556 117.05216951356654 17.068744437868077 C 0.0 **** -0.24
5882 H 42.462697147526995 117.06318736345408 16.455452128690126 H 0.0 **** 0.06
5883 H 43.18311341877697 116.46349354646972 17.9693176189719 H 0.0 **** 0.06
5884 H 43.625353735000076 118.0728341612164 17.348123330895532 H 0.0 **** 0.06
5885 H 44.18358668083707 116.60920691711266 16.50290670117832 H 0.0 **** 0.06
5886 C 99.84520267600178 73.10157528178641 119.44185196072894 C 0.0 **** -0.24
5887 H 100.7716239636575 73.4101605804014 118.95693707513028 H 0.0 **** 0.06
5888 H 99.89348575756188 72.03715160548458 119.67330331874555 H 0.0 **** 0.06
5889 H 99.00506663910775 73.29078480524922 118.7737771933715 H 0.0 **** 0.06
5890 H 99.71152926485391 73.66833316155518 120.36296302958668 H 0.0 **** 0.06
5891 C 87.20176750564713 19.269184401719997 5.201675594252265 C 0.0 **** -0.24
5892 H 87.28433044975876 18.86967906897479 6.21250523446939 H 0.0 **** 0.06
5893 H 86.37495455384249 18.781354191064622 4.684727072077592 H 0.0 **** 0.06
5894 H 88.12927625744271 19.08364610860346 4.661001287061083 H 0.0 **** 0.06
5895 H 87.01737319411066 20.342738460652157 5.249968116107198 H 0.0 **** 0.06
5896 C 10.228555573995436 11.333275054802073 6.153495765375368 C 0.0 **** -0.24
5897 H 10.743789115785518 10.540164048772965 6.696003898316491 H 0.0 **** 0.06
5898 H 9.270097865010712 10.961496983061068 5.790511440429242 H 0.0 **** 0.06
5899 H 10.839829847424824 11.649732787067308 5.307910162553014 H 0.0 **** 0.06
5900 H 10.062143089004962 12.180279502715564 6.8184250931315376 H 0.0 **** 0.06
5901 C 98.02873509347982 11.45898296750488 120.73685892163837 C 0.0 **** -0.24
5902 H 98.54724603143092 12.146811422354318 121.40514939460711 H 0.0 **** 0.06
5903 H 98.43376106213806 11.556589149596789 119.72910857542392 H 0.0 **** 0.06
5904 H 96.96488949209586 11.696224982936144 120.72625359841213 H 0.0 **** 0.06
5905 H 98.16879940268898 10.436620012255219 121.08828131266465 H 0.0 **** 0.06
5906 C 25.07333840677144 121.23003504373384 81.46217540619443 C 0.0 **** -0.24
5907 H 26.016724980799154 121.31729084964962 82.0014656069946 H 0.0 **** 0.06
5908 H 25.16517904923822 121.71224440142711 80.48894052129549 H 0.0 **** 0.06
5909 H 24.281021739466894 121.71265639318428 82.03456133388181 H 0.0 **** 0.06
5910 H 24.8309260231799 120.1755559563624 81.32390071872811 H 0.0 **** 0.06
5911 C 99.37238568024347 98.2827383221213 55.97966784808192 C 0.0 **** -0.24
5912 H 99.36180090687922 99.33702167215597 56.25395824326806 H 0.0 **** 0.06
5913 H 98.87946749721051 97.69970062142757 56.758292576727186 H 0.0 **** 0.06
5914 H 100.40254996608931 97.94639242338756 55.87005673839906 H 0.0 **** 0.06
5915 H 98.84376733643248 98.14842370190573 55.035453896941576 H 0.0 **** 0.06
5916 C 99.23339997991826 25.365419991243257 35.18830240604075 C 0.0 **** -0.24
5917 H 99.92481085149699 26.081723408356304 35.63397293158215 H 0.0 **** 0.06
5918 H 98.22573412255275 25.779433196066947 35.19742532676662 H 0.0 **** 0.06
5919 H 99.25161293790458 24.439089771509494 35.76248819441474 H 0.0 **** 0.06
5920 H 99.53505096645307 25.16185455342741 34.16021701510766 H 0.0 **** 0.06
5921 C 80.63321754305929 3.4295843361000884 33.34861839400359 C 0.0 **** -0.24
5922 H 80.77154537947982 4.505372220583851 33.455424439831276 H 0.0 **** 0.06
5923 H 81.36682257463713 2.9058729509344143 33.96289181830667 H 0.0 **** 0.06
5924 H 80.76668154734915 3.1470272466355933 32.3040746701325 H 0.0 **** 0.06
5925 H 79.62819719749143 3.1584146069876855 33.67244984638718 H 0.0 **** 0.06
5926 C 61.83676618319973 59.84159187853521 32.08968860111942 C 0.0 **** -0.24
5927 H 61.615405829435105 60.04048365144729 31.041017836565516 H 0.0 **** 0.06
5928 H 61.554843373022464 60.70658877840242 32.69074238047595 H 0.0 **** 0.06
5929 H 62.90317587497748 59.64987442679637 32.20456003194376 H 0.0 **** 0.06
5930 H 61.27346268938257 58.96879031757135 32.420073715625705 H 0.0 **** 0.06
5931 C 5.239949256864946 77.6025791985018 43.17139874465276 C 0.0 **** -0.24
5932 H 4.407231267726544 77.96319125035731 43.774454591072974 H 0.0 **** 0.06
5933 H 5.122812923775967 77.94970104222695 42.14427641955393 H 0.0 **** 0.06
5934 H 5.253891109674328 76.51251959041875 43.186871712340604 H 0.0 **** 0.06
5935 H 6.175493094399911 77.98425407779058 43.57932849342213 H 0.0 **** 0.06
5936 C 95.6646456066212 90.78570735868436 90.76483635864588 C 0.0 **** -0.24
5937 H 95.49808680402354 90.7567479800526 91.841464523622 H 0.0 **** 0.06
5938 H 96.12202837905447 91.73806763260316 90.49393288078238 H 0.0 **** 0.06
5939 H 94.7108015893315 90.68081995568181 90.24750382610887 H 0.0 **** 0.06
5940 H 96.32678525324707 89.96921347288644 90.47682676405418 H 0.0 **** 0.06
5941 C 103.36770145970354 29.13395325521077 26.21360342288702 C 0.0 **** -0.24
5942 H 103.59423896296434 28.359001076298853 26.94468720283848 H 0.0 **** 0.06
5943 H 102.65348773812414 28.749411482879196 25.48591457437206 H 0.0 **** 0.06
5944 H 104.28386308778369 29.43028056241843 25.70327933177552 H 0.0 **** 0.06
5945 H 102.93871055604532 29.998726003619765 26.721611989416346 H 0.0 **** 0.06
5946 C 43.48170052630009 8.698599286307768 53.412342621316355 C 0.0 **** -0.24
5947 H 44.32951383188987 9.069696054879387 52.837330062617795 H 0.0 **** 0.06
5948 H 42.55534992884395 8.941220482120286 52.89133278341161 H 0.0 **** 0.06
5949 H 43.478669822042164 9.166971485669734 54.3978917796275 H 0.0 **** 0.06
5950 H 43.5636710594747 7.617161074933762 53.52436926969621 H 0.0 **** 0.06
5951 C 68.97070978440918 38.738202225999146 42.73515633520556 C 0.0 **** -0.24
5952 H 69.97006664775957 38.63988334922968 42.310302234368685 H 0.0 **** 0.06
5953 H 68.91225638396824 38.167865351927276 43.66199760395151 H 0.0 **** 0.06
5954 H 68.23538523312398 38.35802561813205 42.0267629401553 H 0.0 **** 0.06
5955 H 68.76699896538015 39.78937884288379 42.94168571376635 H 0.0 **** 0.06
5956 C 112.35876645405415 27.901292985625943 114.26595775366658 C 0.0 **** -0.24
5957 H 113.24298585294696 28.440823726751432 114.60575233411312 H 0.0 **** 0.06
5958 H 111.52637763230855 28.59715679130605 114.16132450177906 H 0.0 **** 0.06
5959 H 112.10014102341694 27.131906559114597 114.99370918088545 H 0.0 **** 0.06
5960 H 112.56667788634955 27.434424175046672 113.30315711948295 H 0.0 **** 0.06
5961 C 49.55794654839855 29.17894044452524 15.682071002858493 C 0.0 **** -0.24
5962 H 50.581106387540885 28.80849869632023 15.751616711882377 H 0.0 **** 0.06
5963 H 48.88646601357986 28.350530512417706 15.456450568949094 H 0.0 **** 0.06
5964 H 49.493867898423325 29.924586534296935 14.89044579434318 H 0.0 **** 0.06
5965 H 49.2707961695074 29.630747355142503 16.631456526542365 H 0.0 **** 0.06
5966 C 89.5398785013438 122.59518622904534 11.062498609341219 C 0.0 **** -0.24
5967 H 88.91598804447014 121.90895041404809 10.489508355348022 H 0.0 **** 0.06
5968 H 88.95265270393061 123.46918555387799 11.345107483124153 H 0.0 **** 0.06
5969 H 90.38944387201849 122.90750849461074 10.455220921685111 H 0.0 **** 0.06
5970 H 89.90014873892149 122.09338561345754 11.96134914294781 H 0.0 **** 0.06
5971 C 98.63432087335842 121.41665288904457 23.229281693401617 C 0.0 **** -0.24
5972 H 98.27763519260446 122.13296615290929 22.490398588726862 H 0.0 **** 0.06
5973 H 99.4682615469046 121.85013506229043 23.78274077064424 H 0.0 **** 0.06
5974 H 98.96476397841752 120.50900776614914 22.725166289042534 H 0.0 **** 0.06
5975 H 97.82684547999733 121.17427755420518 23.920199484970226 H 0.0 **** 0.06
5976 C 54.08214381271678 33.30506132479356 70.48365532013597 C 0.0 **** -0.24
5977 H 54.11140586842488 34.18720926228701 69.84441167914466 H 0.0 **** 0.06
5978 H 53.185296053707475 32.72569926715319 70.26166101071462 H 0.0 **** 0.06
5979 H 54.06723957327951 33.6130943207082 71.52847261115036 H 0.0 **** 0.06
5980 H 54.964867086977975 32.693434009404555 70.2980042049575 H 0.0 **** 0.06
5981 C 115.74442998503724 105.76255932155453 117.74899844390538 C 0.0 **** -0.24
5982 H 115.73656386403616 106.00047517494933 116.68563122554436 H 0.0 **** 0.06
5983 H 115.5983810450021 106.67612443871742 118.32664995811626 H 0.0 **** 0.06
5984 H 116.70078493494427 105.3134001666715 118.01408124485444 H 0.0 **** 0.06
5985 H 114.93993225083264 105.06024637909873 117.97050625393896 H 0.0 **** 0.06
5986 C 84.17186064512899 3.5744116738095784 117.24248172185736 C 0.0 **** -0.24
5987 H 84.56605454694835 4.423372391178702 116.68501018841738 H 0.0 **** 0.06
5988 H 83.53643770712247 3.9364246084092827 118.05214470957695 H 0.0 **** 0.06
5989 H 84.99757533408709 2.996588923275084 117.65864139046315 H 0.0 **** 0.06
5990 H 83.58525755021702 2.942382219587728 116.57593594590351 H 0.0 **** 0.06
5991 C 92.41758517199625 28.12657330925589 57.51328317977574 C 0.0 **** -0.24
5992 H 91.77004921900979 28.893698079683432 57.08718160747155 H 0.0 **** 0.06
5993 H 92.82235701936119 27.508239485351453 56.712262128072766 H 0.0 **** 0.06
5994 H 91.84097405251273 27.50399619241395 58.19713260597372 H 0.0 **** 0.06
5995 H 93.23518610035936 28.601846593673073 58.05493132628736 H 0.0 **** 0.06
5996 C 56.101309712339 44.267228117468534 97.66856232392323 C 0.0 **** -0.24
5997 H 57.178733817962524 44.12183500635987 97.75612904076917 H 0.0 **** 0.06
5998 H 55.793967120518744 44.086246280204094 96.63863475097787 H 0.0 **** 0.06
5999 H 55.84863945175904 45.28970835849718 97.9493123988982 H 0.0 **** 0.06
6000 H 55.5868410459243 43.57055058925067 98.33005389117366 H 0.0 **** 0.06
6001 C 19.015905489730528 85.87098509313108 23.98845049471717 C 0.0 **** -0.24
6002 H 19.156584311136783 86.72272951239927 24.654547834214142 H 0.0 **** 0.06
6003 H 18.318697956062067 85.16585594265047 24.442552156112583 H 0.0 **** 0.06
6004 H 19.974114585355778 85.37901579940097 23.821096810289475 H 0.0 **** 0.06
6005 H 18.613900403709465 86.21758538047442 23.036189562937153 H 0.0 **** 0.06
6006 C 96.25066495128098 124.05698434041416 122.05809891778028 C 0.0 **** -0.24
6007 H 96.43514779533177 123.76987372053166 123.09336375666311 H 0.0 **** 0.06
6008 H 97.09566711913567 124.63736423652523 121.68687762223948 H 0.0 **** 0.06
6009 H 95.34391718785326 124.65947210439816 122.00433374975756 H 0.0 **** 0.06
6010 H 96.12953282789996 123.16174007490278 121.4482215367259 H 0.0 **** 0.06
6011 C 7.141066856061087 64.73585639934836 24.18390812739716 C 0.0 **** -0.24
6012 H 7.8388306306326 65.28640397510068 23.55270546231037 H 0.0 **** 0.06
6013 H 7.620617764952129 64.49754311551905 25.133743616853565 H 0.0 **** 0.06
6014 H 6.8493478919371 63.81296127117889 23.683263241178736 H 0.0 **** 0.06
6015 H 6.256887603252011 65.34552489199783 24.366015255679656 H 0.0 **** 0.06
6016 C 71.34434838674649 108.71191889357728 4.857209720866848 C 0.0 **** -0.24
6017 H 72.17682835389135 108.31115082607536 4.278549381814969 H 0.0 **** 0.06
6018 H 70.41456611490491 108.55951735523368 4.310073220253798 H 0.0 **** 0.06
6019 H 71.49829628845531 109.77831480921031 5.022559378141324 H 0.0 **** 0.06
6020 H 71.29015004925343 108.19874308835213 5.817750133501022 H 0.0 **** 0.06
6021 C 43.9378610585367 90.15723509817163 30.889282012271593 C 0.0 **** -0.24
6022 H 43.325902150038914 90.64276219085755 31.65023175207419 H 0.0 **** 0.06
6023 H 43.33435831818289 89.42561485133491 30.35077385313521 H 0.0 **** 0.06
6024 H 44.778527673666645 89.65454128063273 31.366243448172142 H 0.0 **** 0.06
6025 H 44.3102931022556 90.9059516854117 30.190520592164745 H 0.0 **** 0.06
6026 C 91.80400372597435 99.60824673129548 17.040544233749188 C 0.0 **** -0.24
6027 H 92.43584552048725 99.58723462336616 16.152679864646643 H 0.0 **** 0.06
6028 H 91.30168970179074 100.57322657678537 17.10687081491767 H 0.0 **** 0.06
6029 H 92.41901198437064 99.45559941817936 17.927255759789887 H 0.0 **** 0.06
6030 H 91.05966908514006 98.81444439667598 16.973697161421455 H 0.0 **** 0.06
6031 C 104.07135759662843 65.83368702678767 28.811714222815624 C 0.0 **** -0.24
6032 H 103.62801935768942 65.7756459304473 27.817392257636072 H 0.0 **** 0.06
6033 H 103.28347380871404 65.78894450626292 29.563708211481583 H 0.0 **** 0.06
6034 H 104.61661218058033 66.77319548503155 28.91031994471649 H 0.0 **** 0.06
6035 H 104.75720740669632 64.99920045877454 28.953442291511692 H 0.0 **** 0.06
6036 C 97.94402534151752 13.257634927441359 32.496936354328966 C 0.0 **** -0.24
6037 H 98.60967871072725 13.889726978456963 31.908860714844195 H 0.0 **** 0.06
6038 H 98.06636641661964 12.218727787561477 32.19307249651047 H 0.0 **** 0.06
6039 H 96.91086419535671 13.565776070830339 32.33210654495244 H 0.0 **** 0.06
6040 H 98.18800513313815 13.358193762394023 33.55472485554813 H 0.0 **** 0.06
6041 C 35.04301254521346 1.9970893456851968 60.27142547585271 C 0.0 **** -0.24
6042 H 35.56677932607144 2.758544242273558 59.69303500410689 H 0.0 **** 0.06
6043 H 34.64221927375527 1.2399098470814351 59.596296779888064 H 0.0 **** 0.06
6044 H 34.22681958889473 2.4593232732149204 60.82609882902523 H 0.0 **** 0.06
6045 H 35.73815610826156 1.5307585041609286 60.96975540757268 H 0.0 **** 0.06
6046 C 17.636203221465678 100.31249954929694 22.706211945360167 C 0.0 **** -0.24
6047 H 17.95297175368586 101.35516167434287 22.739769722662885 H 0.0 **** 0.06
6048 H 16.817751846192493 100.20531662917114 21.99433634117736 H 0.0 **** 0.06
6049 H 17.300826216444875 100.0028626715831 23.69591693321985 H 0.0 **** 0.06
6050 H 18.473192352921103 99.68807180844954 22.39382773600417 H 0.0 **** 0.06
6051 C 72.48056039448919 100.04461985765204 41.7768104317924 C 0.0 **** -0.24
6052 H 72.49519478476317 100.14565411342714 40.69104725076994 H 0.0 **** 0.06
6053 H 72.39248744715398 101.03156766135916 42.23152454174868 H 0.0 **** 0.06
6054 H 73.40370712623522 99.57181865632128 42.109822089559145 H 0.0 **** 0.06
6055 H 71.63054304291491 99.43026816462043 42.072161337350394 H 0.0 **** 0.06
6056 C 8.545141713869953 24.822534826379155 19.974329195051652 C 0.0 **** -0.24
6057 H 8.187533958824133 25.075787972873286 18.977069368819492 H 0.0 **** 0.06
6058 H 7.713591128833912 24.45817999055477 20.577708756914568 H 0.0 **** 0.06
6059 H 8.973867822248792 25.708698282944482 20.442240463956963 H 0.0 **** 0.06
6060 H 9.308004836725104 24.047181833240288 19.90021896033786 H 0.0 **** 0.06
6061 C 115.14607336597567 97.69403473579192 34.580933314319054 C 0.0 **** -0.24
6062 H 115.66074601902179 97.58454606826358 35.53589616069206 H 0.0 **** 0.06
6063 H 115.86345310671774 97.98284338827985 33.81318755992817 H 0.0 **** 0.06
6064 H 114.37786267361707 98.46244491183108 34.66970752770101 H 0.0 **** 0.06
6065 H 114.68137869381064 96.74643826711345 34.30781516921877 H 0.0 **** 0.06
6066 C 103.17149658980642 81.95958244348827 107.36260712690455 C 0.0 **** -0.24
6067 H 103.88738794345915 81.62497932193793 106.61092294972917 H 0.0 **** 0.06
6068 H 102.23294550367662 82.22602650915326 106.87568395853026 H 0.0 **** 0.06
6069 H 103.57089491309162 82.82960230278707 107.88344117958508 H 0.0 **** 0.06
6070 H 102.99530575010769 81.15655678312982 108.0774918884415 H 0.0 **** 0.06
6071 C 103.11076589493126 90.88252513336008 88.99314124473023 C 0.0 **** -0.24
6072 H 103.66141416173764 91.2989331894625 88.14929555068133 H 0.0 **** 0.06
6073 H 102.0637430742492 91.17603704938227 88.9234301959608 H 0.0 **** 0.06
6074 H 103.53429439181693 91.26046373296975 89.92360764812253 H 0.0 **** 0.06
6075 H 103.18666453666927 89.79502268152629 88.97463297586836 H 0.0 **** 0.06
6076 C 38.6569043480371 79.01528333215037 4.897533155342984 C 0.0 **** -0.24
6077 H 37.956372611726664 78.96686735017812 5.730923736507634 H 0.0 **** 0.06
6078 H 39.02241778892258 80.03684195710292 4.789836155599005 H 0.0 **** 0.06
6079 H 38.15223034603598 78.71071943717322 3.9809363705155363 H 0.0 **** 0.06
6080 H 39.4966853122823 78.34681152721504 5.089426689502119 H 0.0 **** 0.06
6081 C 26.883563326486176 27.909125035380683 14.033380675757769 C 0.0 **** -0.24
6082 H 27.4380051121812 28.538645564407318 13.336992173049481 H 0.0 **** 0.06
6083 H 25.83582550991335 27.87270547595854 13.734529866747664 H 0.0 **** 0.06
6084 H 26.961932128274263 28.324504549169482 15.03827814259364 H 0.0 **** 0.06
6085 H 27.299777992007918 26.901970696407012 14.02246390372855 H 0.0 **** 0.06
6086 C 49.165879352736226 93.77076340075229 110.5736218204934 C 0.0 **** -0.24
6087 H 49.293141494583466 93.03331083628444 111.36620858299167 H 0.0 **** 0.06
6088 H 49.31721443283891 93.29440945957134 109.60572913819308 H 0.0 **** 0.06
6089 H 49.89277367091961 94.57193423688335 110.7033314711743 H 0.0 **** 0.06
6090 H 48.15745123502447 94.18369128081224 110.62151849737353 H 0.0 **** 0.06
6091 C 113.93502822532031 118.88487287606492 117.55726767630927 C 0.0 **** -0.24
6092 H 113.08212774995872 118.24816938084845 117.31766329397414 H 0.0 **** 0.06
6093 H 114.7387065573065 118.69814259623104 116.84379326186574 H 0.0 **** 0.06
6094 H 114.28343114503582 118.6593382641667 118.56447727584403 H 0.0 **** 0.06
6095 H 113.63374915834993 119.93070758425324 117.50147009658527 H 0.0 **** 0.06
6096 C 58.42822430217839 86.78021344149958 112.47747502782019 C 0.0 **** -0.24
6097 H 59.28810224462022 86.26317199287551 112.05114324170079 H 0.0 **** 0.06
6098 H 57.527335111796475 86.49082298827918 111.93647915432899 H 0.0 **** 0.06
6099 H 58.57424844787468 87.8569981076945 112.39187456463424 H 0.0 **** 0.06
6100 H 58.32596907239551 86.50938033339689 113.52792015082606 H 0.0 **** 0.06
6101 C 52.42656290685807 90.00488315178512 110.45895991009081 C 0.0 **** -0.24
6102 H 51.92304379935149 90.62013450513831 109.71368415211587 H 0.0 **** 0.06
6103 H 51.68430995595554 89.5470654459952 111.11336975797494 H 0.0 **** 0.06
6104 H 53.097875386452074 90.62748644006837 111.05074232672408 H 0.0 **** 0.06
6105 H 53.000174838773546 89.2254641049081 109.95899198944433 H 0.0 **** 0.06
6106 C 2.1503139684424735 77.9889709052997 41.26341802346589 C 0.0 **** -0.24
6107 H 1.6418439609412463 78.44151794928116 40.41252373402654 H 0.0 **** 0.06
6108 H 1.4442837742655676 77.86468613667145 42.08459606545382 H 0.0 **** 0.06
6109 H 2.96959146002653 78.63433290753026 41.58189100532347 H 0.0 **** 0.06
6110 H 2.546407175498082 77.01532090191797 40.97416973352194 H 0.0 **** 0.06
6111 C 121.49778528380547 16.910498753951853 60.690876653675446 C 0.0 **** -0.24
6112 H 121.77075106169377 17.701818353996604 61.389263867150135 H 0.0 **** 0.06
6113 H 120.47689976458584 17.06972113081223 60.34332851078622 H 0.0 **** 0.06
6114 H 121.56471028250407 15.944277011960608 61.19285713260905 H 0.0 **** 0.06
6115 H 122.17802936405698 16.92519117941642 59.840169446033 H 0.0 **** 0.06
6116 C 89.5954213274494 84.36264728986926 65.25114141797229 C 0.0 **** -0.24
6117 H 88.5516148469178 84.08389031882795 65.40143240810661 H 0.0 **** 0.06
6118 H 90.1444465294853 84.2295712482665 66.1827871382344 H 0.0 **** 0.06
6119 H 89.65064855668481 85.40630091431287 64.94192181888798 H 0.0 **** 0.06
6120 H 90.03130313480216 83.73125458068678 64.47784786112433 H 0.0 **** 0.06
6121 C 36.271852319391996 109.62243225389784 100.05930834280016 C 0.0 **** -0.24
6122 H 35.88172191245283 108.61496349483639 100.20053730792708 H 0.0 **** 0.06
6123 H 36.38132798338697 109.8223756828917 98.9927238455974 H 0.0 **** 0.06
6124 H 37.243830316352444 109.70683500595635 100.54580981234173 H 0.0 **** 0.06
6125 H 35.58277345600942 110.34467851518667 100.49611415829679 H 0.0 **** 0.06
6126 C 30.92036274943429 31.338108986168578 56.90764462692164 C 0.0 **** -0.24
6127 H 30.701497343668983 30.272129566989094 56.85158680747152 H 0.0 **** 0.06
6128 H 30.52383685631188 31.837610198963432 56.02312977962028 H 0.0 **** 0.06
6129 H 31.999814858972933 31.4855903824793 56.9540142555892 H 0.0 **** 0.06
6130 H 30.457367593638345 31.75796628024571 57.80078742546566 H 0.0 **** 0.06
6131 C 54.00096074656045 97.22498861458436 92.66849358294316 C 0.0 **** -0.24
6132 H 53.36300363423186 97.61182841164809 91.87413511443543 H 0.0 **** 0.06
6133 H 54.694081439792484 96.49273509884928 92.25312837496858 H 0.0 **** 0.06
6134 H 53.3836620145393 96.74935319038937 93.43057095623351 H 0.0 **** 0.06
6135 H 54.56296430935086 98.04506942366274 93.11592759432831 H 0.0 **** 0.06
6136 C 2.028051655181713 61.54056889361567 112.37220401690882 C 0.0 **** -0.24
6137 H 1.6857142083553924 61.20779870015359 113.35218809253809 H 0.0 **** 0.06
6138 H 3.1133231749041386 61.45106097715825 112.31668094358992 H 0.0 **** 0.06
6139 H 1.740952770932637 62.581147432855644 112.2209154111913 H 0.0 **** 0.06
6140 H 1.572005384468838 60.92129854086866 111.59915305561663 H 0.0 **** 0.06
6141 C 114.85928687171923 110.90761100183883 56.30072951714604 C 0.0 **** -0.24
6142 H 113.9983575439585 111.52315428424617 56.56292201623404 H 0.0 **** 0.06
6143 H 115.45016184279585 110.7100490962245 57.1947606879621 H 0.0 **** 0.06
6144 H 115.4718484683344 111.43356951613774 55.56825927654796 H 0.0 **** 0.06
6145 H 114.51499069883721 109.96478638086221 55.87623032676227 H 0.0 **** 0.06
6146 C 38.65694082363896 113.92756382705957 9.228045058361488 C 0.0 **** -0.24
6147 H 38.80270329363981 113.85407922206315 10.3056154766021 H 0.0 **** 0.06
6148 H 38.16018818784086 114.86895755342937 8.991646202636787 H 0.0 **** 0.06
6149 H 38.03978348188501 113.09584261246042 8.887631535696471 H 0.0 **** 0.06
6150 H 39.623845300786684 113.89082434216886 8.726898760549489 H 0.0 **** 0.06
6151 C 116.94516089052537 86.70406971931274 78.35274251003102 C 0.0 **** -0.24
6152 H 115.90101209093082 86.9763790331721 78.50348923959217 H 0.0 **** 0.06
6153 H 117.58189495001406 87.54449901028997 78.62922769303736 H 0.0 **** 0.06
6154 H 117.10777754101001 86.45304315725369 77.30492947424946 H 0.0 **** 0.06
6155 H 117.18922318971069 85.84339533506366 78.97516269423693 H 0.0 **** 0.06
6156 C 6.431732174946671 74.38808347867871 46.246867819251435 C 0.0 **** -0.24
6157 H 6.203743644151832 74.28888555311744 47.30793741462023 H 0.0 **** 0.06
6158 H 7.507745656102333 74.29451495753864 46.09600466085081 H 0.0 **** 0.06
6159 H 6.09751791701045 75.36350939340622 45.893256695647125 H 0.0 **** 0.06
6160 H 5.917314622030233 73.60425210203209 45.69078089331444 H 0.0 **** 0.06
6161 C 24.691514078857217 26.165240964532956 106.61117989855404 C 0.0 **** -0.24
6162 H 24.594146667712266 26.054103409507974 105.53100131803808 H 0.0 **** 0.06
6163 H 25.374464693517034 26.985175353990485 106.83130420869628 H 0.0 **** 0.06
6164 H 25.08236642314222 25.240834665513347 107.03737256729278 H 0.0 **** 0.06
6165 H 23.71420599047456 26.378881147762456 107.04320818819826 H 0.0 **** 0.06
6166 C 111.947204295907 21.5614579823338 87.00547485017381 C 0.0 **** -0.24
6167 H 112.35292752024576 20.64028563029683 86.58764372234003 H 0.0 **** 0.06
6168 H 112.48605036342892 22.415599770596046 86.59302542131468 H 0.0 **** 0.06
6169 H 112.05917365800192 21.549214749680942 88.0889339357579 H 0.0 **** 0.06
6170 H 110.89062758942295 21.641652245625593 86.75025878333787 H 0.0 **** 0.06
6171 C 27.581826065509695 66.10497750901848 91.60561899213525 C 0.0 **** -0.24
6172 H 27.844749786503137 65.590815693682 92.5296787373851 H 0.0 **** 0.06
6173 H 26.526333232097173 65.94459030175287 91.38818055488697 H 0.0 **** 0.06
6174 H 28.186788115378157 65.71187204168288 90.7874577530402 H 0.0 **** 0.06
6175 H 27.77289527189157 67.17257005434561 91.71705710749681 H 0.0 **** 0.06
6176 C 110.71543268990906 59.99095877584166 97.13948938199013 C 0.0 **** -0.24
6177 H 111.69104551652282 59.504066723343755 97.13454043642535 H 0.0 **** 0.06
6178 H 110.59724269793197 60.55961000551282 98.06187520867249 H 0.0 **** 0.06
6179 H 109.93313449012943 59.23501734485315 97.0750086916281 H 0.0 **** 0.06
6180 H 110.64179304894078 60.66378070804957 96.28430950040868 H 0.0 **** 0.06
6181 C 118.31146392589693 118.7646775133301 0.8121596474650499 C 0.0 **** -0.24
6182 H 118.85110301375454 118.63732695308366 1.7506441710334144 H 0.0 **** 0.06
6183 H 118.39350086959521 117.852178071596 0.21986873253316652 H 0.0 **** 0.06
6184 H 118.74029905109268 119.59804940525765 0.2570476323049071 H 0.0 **** 0.06
6185 H 117.26166264044838 118.96909007261215 1.0215574816292303 H 0.0 **** 0.06
6186 C 54.29752195670473 80.84621262411929 20.85224190076994 C 0.0 **** -0.24
6187 H 54.41962202039093 81.81428698573436 20.365829172184277 H 0.0 **** 0.06
6188 H 53.28702490770888 80.76628712832955 21.254076919581195 H 0.0 **** 0.06
6189 H 55.02028643799704 80.75367746319382 21.66300787553888 H 0.0 **** 0.06
6190 H 54.463387229636524 80.05150117464622 20.124593528023155 H 0.0 **** 0.06
6191 C 103.57427442911012 43.289862317116246 74.96180077025421 C 0.0 **** -0.24
6192 H 104.3666024215824 43.06957816164291 74.24593487066136 H 0.0 **** 0.06
6193 H 103.86420024092854 44.14673574322771 75.57004715979456 H 0.0 **** 0.06
6194 H 103.41524376751971 42.424285944433194 75.6048283693326 H 0.0 **** 0.06
6195 H 102.65369939688145 43.518581202646914 74.42500846540557 H 0.0 **** 0.06
6196 C 71.7128052505557 32.93284097732922 5.629265144917667 C 0.0 **** -0.24
6197 H 71.02728525970497 33.051777778834946 6.467375520232366 H 0.0 **** 0.06
6198 H 71.58283199172192 31.942471941275386 5.191555313599537 H 0.0 **** 0.06
6199 H 72.739119645388 33.042471968889345 5.980348528718167 H 0.0 **** 0.06
6200 H 71.50341333504244 33.69367639754478 4.87793821997073 H 0.0 **** 0.06
6201 C 35.033903235583 41.03476149050483 105.52050743370687 C 0.0 **** -0.24
6202 H 34.25449972244135 40.3546008286723 105.17925054903836 H 0.0 **** 0.06
6203 H 35.990285346363 40.73603841272119 105.09115734855301 H 0.0 **** 0.06
6204 H 35.096274433741954 40.99752440461378 106.60822474827151 H 0.0 **** 0.06
6205 H 34.79443614952924 42.04989077401852 105.20439868504997 H 0.0 **** 0.06
6206 C 123.199887826795 75.26470541548048 18.942266511880916 C 0.0 **** -0.24
6207 H 122.12687498743404 75.07342363957565 18.93449279646461 H 0.0 **** 0.06
6208 H 123.42123091040786 76.06290393028672 19.651504929206027 H 0.0 **** 0.06
6209 H 123.52232464896993 75.5638404739035 17.944579958710165 H 0.0 **** 0.06
6210 H 123.72813112305975 74.35771075969365 19.238125398729863 H 0.0 **** 0.06
6211 C 8.65219087317486 51.18933347031049 28.164059243161887 C 0.0 **** -0.24
6212 H 8.04533784984794 51.51829595120108 29.008233310342064 H 0.0 **** 0.06
6213 H 9.077281696189658 50.20961599958264 28.38263231702041 H 0.0 **** 0.06
6214 H 9.457224480527245 51.90556268060726 27.995793427420892 H 0.0 **** 0.06
6215 H 8.029959479460018 51.125493931315475 27.272269902012397 H 0.0 **** 0.06
6216 C 70.29124967843728 81.23035571884938 28.467643236008364 C 0.0 **** -0.24
6217 H 69.51017099901964 81.743666455023 29.027584159949576 H 0.0 **** 0.06
6218 H 70.12821039714504 81.37713895824513 27.399592852830295 H 0.0 **** 0.06
6219 H 70.26338679214263 80.16555978806014 28.696863521147314 H 0.0 **** 0.06
6220 H 71.26358271630261 81.63693915324922 28.745952572036437 H 0.0 **** 0.06
6221 C 95.29654086720507 104.22473363228482 60.796814584011855 C 0.0 **** -0.24
6222 H 95.6037125552021 104.8180661781129 61.65741361587405 H 0.0 **** 0.06
6223 H 94.61749814849946 103.43717885160731 61.122374285583305 H 0.0 **** 0.06
6224 H 96.17576129986728 103.7775192667633 60.33242414428432 H 0.0 **** 0.06
6225 H 94.79130865991354 104.86594311452285 60.074363522236666 H 0.0 **** 0.06
6226 C 118.9147520032939 87.59647519470833 114.59776357864693 C 0.0 **** -0.24
6227 H 119.0009074773809 88.59778518824565 115.01894311577341 H 0.0 **** 0.06
6228 H 119.15741015926642 87.62693467536701 113.53573206968507 H 0.0 **** 0.06
6229 H 117.8950300121746 87.23426621166637 114.7274609454091 H 0.0 **** 0.06
6230 H 119.60640455322908 86.92675385296423 115.11010999631121 H 0.0 **** 0.06
6231 C 47.779398987931124 55.359633803678705 83.2835766695291 C 0.0 **** -0.24
6232 H 48.11397531729049 56.10831182022659 82.56568071601023 H 0.0 **** 0.06
6233 H 46.70161373843002 55.22709516883137 83.19416680473141 H 0.0 **** 0.06
6234 H 48.02267797003338 55.69062746343637 84.29381540696778 H 0.0 **** 0.06
6235 H 48.280699038817886 54.41285059592134 83.08066643109974 H 0.0 **** 0.06
6236 C 115.03788884807447 8.765431983014167 24.306028900197077 C 0.0 **** -0.24
6237 H 114.62209952104293 8.3083898407572 25.203675485725398 H 0.0 **** 0.06
6238 H 114.4239270110215 9.618845579647783 24.01578438597187 H 0.0 **** 0.06
6239 H 115.04970165507994 8.0335854340359 23.497834098727196 H 0.0 **** 0.06
6240 H 116.05582720515325 9.100907077615929 24.506821630363703 H 0.0 **** 0.06
6241 C 52.47811849925594 104.10846704877733 95.92910161693123 C 0.0 **** -0.24
6242 H 53.21288149991278 104.80024260836754 96.33963852683948 H 0.0 **** 0.06
6243 H 52.106555419179756 103.46041846621668 96.72259364289965 H 0.0 **** 0.06
6244 H 52.94508649067065 103.50220275860775 95.1519798187075 H 0.0 **** 0.06
6245 H 51.64886594917117 104.6720758468644 95.50045830512275 H 0.0 **** 0.06
6246 C 100.41464809810901 77.151639901941 29.410354538404647 C 0.0 **** -0.24
6247 H 100.3536460014713 78.07630884829965 29.98474449365071 H 0.0 **** 0.06
6248 H 99.432653068447 76.68014601202597 29.374731945147573 H 0.0 **** 0.06
6249 H 101.12629933923421 76.47534550876253 29.884294545120383 H 0.0 **** 0.06
6250 H 100.74737291061598 77.37622431026816 28.396671263577076 H 0.0 **** 0.06
6251 C 88.23527058747284 94.09901616913976 47.18266648334325 C 0.0 **** -0.24
6252 H 88.93746090860344 93.29767955191622 46.95075457394876 H 0.0 **** 0.06
6253 H 88.60018787347673 94.6642437545139 48.03991022149644 H 0.0 **** 0.06
6254 H 87.26089605379994 93.67004928876722 47.41685742976472 H 0.0 **** 0.06
6255 H 88.14298136766418 94.76116958545447 46.3220200766201 H 0.0 **** 0.06
6256 C 50.66689546040246 13.015728631645857 75.43352389768484 C 0.0 **** -0.24
6257 H 50.7744070601655 13.614524185212247 74.52980282367918 H 0.0 **** 0.06
6258 H 50.42395877788654 13.665517713261863 76.27419542557789 H 0.0 **** 0.06
6259 H 51.60046415738567 12.492194213290759 75.63637812472871 H 0.0 **** 0.06
6260 H 49.865590314349106 12.288945919301511 75.2936569839245 H 0.0 **** 0.06
6261 C 28.854972833532507 15.422928441727464 43.149638388120934 C 0.0 **** -0.24
6262 H 29.70013511380123 16.10440255490515 43.05472558944123 H 0.0 **** 0.06
6263 H 28.27881471290292 15.427104378233636 42.22425138791951 H 0.0 **** 0.06
6264 H 28.219656020038194 15.7463066138328 43.97536710547075 H 0.0 **** 0.06
6265 H 29.221285585901818 14.415436650778133 43.346117269958256 H 0.0 **** 0.06
6266 C 60.124341919853705 2.407144043812309 39.25676510019835 C 0.0 **** -0.24
6267 H 59.61700029749058 1.5919614352466187 39.77329828726724 H 0.0 **** 0.06
6268 H 60.26993830760935 3.2388955345672947 39.94675416512629 H 0.0 **** 0.06
6269 H 59.516985379306604 2.7351210251436306 38.41308397128762 H 0.0 **** 0.06
6270 H 61.092688328757475 2.0607695082609983 38.89496592171261 H 0.0 **** 0.06
6271 C 56.85149763083456 26.727641599429433 23.56935635754553 C 0.0 **** -0.24
6272 H 56.66416239313196 26.294662827088416 22.586951870570545 H 0.0 **** 0.06
6273 H 56.11894462901779 26.34549291836595 24.280927324167408 H 0.0 **** 0.06
6274 H 56.77005576865673 27.81236546623768 23.51023791200248 H 0.0 **** 0.06
6275 H 57.85417089180498 26.45641392786905 23.900039888961658 H 0.0 **** 0.06
6276 C 104.68429128077332 75.86310823307844 88.10204346699453 C 0.0 **** -0.24
6277 H 104.17402363986048 76.64750327179019 87.54299778984026 H 0.0 **** 0.06
6278 H 105.49508566846947 75.45635740304499 87.49816028427176 H 0.0 **** 0.06
6279 H 103.97628516946236 75.06904819078983 88.34127087468678 H 0.0 **** 0.06
6280 H 105.08972834565373 76.278492239267 89.02356205854252 H 0.0 **** 0.06
6281 C 19.95287715011216 124.30728370394897 41.04774047207553 C 0.0 **** -0.24
6282 H 19.41113684892815 123.73404092178657 40.295406194291445 H 0.0 **** 0.06
6283 H 19.365673957903823 125.1820029202488 41.33028692910539 H 0.0 **** 0.06
6284 H 20.910712717833917 124.62892793688673 40.639288883661756 H 0.0 **** 0.06
6285 H 20.12179492086841 123.68430481847321 41.9264081189654 H 0.0 **** 0.06
6286 C 85.29346880514902 41.43487345480645 27.415594696567787 C 0.0 **** -0.24
6287 H 84.7741722486868 41.99911656452349 26.640446614534156 H 0.0 **** 0.06
6288 H 84.62394077356385 41.27816880725635 28.26159091319657 H 0.0 **** 0.06
6289 H 86.17088605106227 41.99221429343646 27.743307774753028 H 0.0 **** 0.06
6290 H 85.6044672613155 40.46979403059083 27.01462660102633 H 0.0 **** 0.06
6291 C 78.85918684730242 52.498741060378734 96.1802833680782 C 0.0 **** -0.24
6292 H 78.34868403577141 51.64847379833627 95.72815820479954 H 0.0 **** 0.06
6293 H 79.82889160309634 52.17779035749618 96.56303150035106 H 0.0 **** 0.06
6294 H 78.25623250931937 52.889268639644584 96.99954153097852 H 0.0 **** 0.06
6295 H 79.00318007122172 53.277346310509515 95.4316649841335 H 0.0 **** 0.06
6296 C 36.81475385395035 80.92594388633364 80.44637292587744 C 0.0 **** -0.24
6297 H 35.84032994209758 81.41019228569883 80.50784826543878 H 0.0 **** 0.06
6298 H 37.21234851650405 80.78263225582737 81.45085684382073 H 0.0 **** 0.06
6299 H 37.49600767577854 81.55339420870331 79.87165470776587 H 0.0 **** 0.06
6300 H 36.70979210007292 79.95846444388798 79.95418969906459 H 0.0 **** 0.06
6301 C 3.8294799532503987 82.518018502019 95.97286415990817 C 0.0 **** -0.24
6302 H 4.813815709444981 82.23666232036686 95.601011458747 H 0.0 **** 0.06
6303 H 3.8248965980326943 82.47064749136945 97.06183784585225 H 0.0 **** 0.06
6304 H 3.080375561224045 81.83214932745443 95.57513827294214 H 0.0 **** 0.06
6305 H 3.5972232746769635 83.53428337261056 95.65267621966915 H 0.0 **** 0.06
6306 C 40.74197155487954 99.33389989856578 76.68161701900232 C 0.0 **** -0.24
6307 H 40.4428485553029 100.3827751205472 76.68302700142098 H 0.0 **** 0.06
6308 H 40.33858623607742 98.84108044900515 77.5660982063643 H 0.0 **** 0.06
6309 H 41.829133974374685 99.26677373371342 76.69086761366185 H 0.0 **** 0.06
6310 H 40.35539794133845 98.84715075971096 75.78572591428355 H 0.0 **** 0.06
6311 C 120.52650186112285 114.19605698198022 74.59853517116011 C 0.0 **** -0.24
6312 H 120.24945404550209 113.23393574378017 75.02951654194763 H 0.0 **** 0.06
6313 H 120.24700574861282 114.99430201261872 75.28571234648804 H 0.0 **** 0.06
6314 H 120.00581197011715 114.33226889802243 73.65080786579843 H 0.0 **** 0.06
6315 H 121.60266193092316 114.22090363455321 74.4290570879849 H 0.0 **** 0.06
6316 C 112.83641314805311 56.68419864705231 55.69204762224918 C 0.0 **** -0.24
6317 H 112.53025926781851 55.71817518810235 55.2903845866807 H 0.0 **** 0.06
6318 H 112.62271718534731 56.71811513908193 56.7608116121861 H 0.0 **** 0.06
6319 H 112.285839440313 57.47859804929044 55.186200812114635 H 0.0 **** 0.06
6320 H 113.90522149998162 56.822930772923996 55.52963517085432 H 0.0 **** 0.06
6321 C 97.7001701296538 33.014164541715324 8.130377531007753 C 0.0 **** -0.24
6322 H 97.48560312544654 32.10015381157324 7.576638339831618 H 0.0 **** 0.06
6323 H 97.24129234036624 32.9564659686746 9.117765395725826 H 0.0 **** 0.06
6324 H 97.29370446534162 33.869421172256104 7.58970525032413 H 0.0 **** 0.06
6325 H 98.77913010792696 33.12945637739946 8.235743032503933 H 0.0 **** 0.06
6326 C 32.96612597561172 100.9493613784666 39.82512759323109 C 0.0 **** -0.24
6327 H 33.50586804497834 100.3092623901795 40.523425897096445 H 0.0 **** 0.06
6328 H 33.6456762826169 101.2856491922134 39.041033416281095 H 0.0 **** 0.06
6329 H 32.56967457863998 101.81399286075562 40.35795723496071 H 0.0 **** 0.06
6330 H 32.14468045135171 100.38958096314448 39.379497960196574 H 0.0 **** 0.06
6331 C 72.12308718452232 122.96861749724027 28.28112624876354 C 0.0 **** -0.24
6332 H 72.01030853058707 122.73772980905645 27.222289855671875 H 0.0 **** 0.06
6333 H 71.41293866811957 123.74643205237223 28.56082479945448 H 0.0 **** 0.06
6334 H 73.13808043118165 123.31800797026189 28.47027886330133 H 0.0 **** 0.06
6335 H 71.93168778048079 122.07190917063193 28.87047686560922 H 0.0 **** 0.06
6336 C 30.89592680628209 108.09868176792361 100.44069542696485 C 0.0 **** -0.24
6337 H 30.285369265189644 108.26051416940392 99.55177724970886 H 0.0 **** 0.06
6338 H 30.6571884695544 108.85683624663335 101.18650940934614 H 0.0 **** 0.06
6339 H 31.950963327904304 108.16989249161533 100.17431086802651 H 0.0 **** 0.06
6340 H 30.68934069949927 107.10945642266125 100.84711886855575 H 0.0 **** 0.06
6341 C 123.24014083067331 61.52993521795051 65.57615951125688 C 0.0 **** -0.24
6342 H 122.68584659868523 61.603624567975686 66.5118547053512 H 0.0 **** 0.06
6343 H 123.26410891611617 60.48948786222482 65.249945449694 H 0.0 **** 0.06
6344 H 124.25846436378151 61.886538106839765 65.72839691439395 H 0.0 **** 0.06
6345 H 122.75086225978657 62.13826057283032 64.81544639079847 H 0.0 **** 0.06
6346 C 8.004031697294067 105.61164649466116 72.53003759011062 C 0.0 **** -0.24
6347 H 7.007836751476361 105.9394528650684 72.23149384441982 H 0.0 **** 0.06
6348 H 8.747069458615783 106.30716889554361 72.13951333183329 H 0.0 **** 0.06
6349 H 8.19277549339023 104.61500419111422 72.13165011529239 H 0.0 **** 0.06
6350 H 8.065898751735915 105.58596574745047 73.61820379991141 H 0.0 **** 0.06
6351 C 19.60820017924388 88.1057906918795 97.08518028373604 C 0.0 **** -0.24
6352 H 18.637879370047216 87.89328380678508 96.63633391763798 H 0.0 **** 0.06
6353 H 19.863708016724615 89.15288224790568 96.91953675062652 H 0.0 **** 0.06
6354 H 20.36635796492152 87.46882404103421 96.6292263584096 H 0.0 **** 0.06
6355 H 19.562943576639498 87.9077134423578 98.155990696602 H 0.0 **** 0.06
6356 C 36.83601960607908 67.36109776137809 34.65208766141055 C 0.0 **** -0.24
6357 H 36.133932303374024 67.61671904961204 35.44596479629146 H 0.0 **** 0.06
6358 H 37.19507173884871 66.34252345238838 34.798926495450104 H 0.0 **** 0.06
6359 H 37.679365163700396 68.05204159230914 34.67696057317215 H 0.0 **** 0.06
6360 H 36.3339916295823 67.43482253445762 33.68682586560246 H 0.0 **** 0.06
6361 C 66.69940556909147 75.5455206920644 25.32987395425667 C 0.0 **** -0.24
6362 H 67.67589122079109 75.50648647697159 24.846364028670564 H 0.0 **** 0.06
6363 H 66.76639001963314 76.15440811397708 26.231555664381546 H 0.0 **** 0.06
6364 H 66.38515955151625 74.53631745265542 25.594962500782316 H 0.0 **** 0.06
6365 H 65.97317413505968 75.98505221724187 24.646721257920632 H 0.0 **** 0.06
6366 C 72.02680645138983 40.46038452120271 87.64463690428073 C 0.0 **** -0.24
6367 H 72.14260192367551 39.92773702472482 86.70003443259795 H 0.0 **** 0.06
6368 H 72.96546862254066 40.424809937592585 88.19764277044891 H 0.0 **** 0.06
6369 H 71.23869931673782 39.990446195320374 88.2327991351623 H 0.0 **** 0.06
6370 H 71.76126098815425 41.499332780242284 87.44529069051944 H 0.0 **** 0.06
6371 C 79.33468524900911 2.672464000679696 17.90752556663395 C 0.0 **** -0.24
6372 H 78.9622766771993 1.7360020802028089 17.49325199801254 H 0.0 **** 0.06
6373 H 79.8295066515989 3.245797593832279 17.123185007771525 H 0.0 **** 0.06
6374 H 80.04589542815535 2.458956528959746 18.706181568652653 H 0.0 **** 0.06
6375 H 78.50127492861915 3.249207080811331 18.30845493231297 H 0.0 **** 0.06
6376 C 35.19616108306481 67.21847167056535 119.32120015627422 C 0.0 **** -0.24
6377 H 35.70683127643508 66.98910787463927 120.25697468116799 H 0.0 **** 0.06
6378 H 34.958537253863724 68.28180904411683 119.290569253798 H 0.0 **** 0.06
6379 H 34.2769165244753 66.63786478535907 119.25759442307137 H 0.0 **** 0.06
6380 H 35.84476047149438 66.96631024023725 118.48184910361213 H 0.0 **** 0.06
6381 C 90.69722381212046 31.03818136107668 116.84244939799169 C 0.0 **** -0.24
6382 H 90.84526350731937 31.711630752134738 117.68661932863341 H 0.0 **** 0.06
6383 H 89.63031636882855 30.934969361541818 116.6432898518654 H 0.0 **** 0.06
6384 H 91.11800205128907 30.06074377890704 117.0789534528455 H 0.0 **** 0.06
6385 H 91.1942616980617 31.44479021211238 115.96167287041499 H 0.0 **** 0.06
6386 C 26.958911624894256 80.87486994098006 122.47631214541678 C 0.0 **** -0.24
6387 H 27.997432101474146 80.58055307665524 122.32772727708698 H 0.0 **** 0.06
6388 H 26.90123862844831 81.61003568451737 123.27961029345494 H 0.0 **** 0.06
6389 H 26.367863289103752 79.99839414595108 122.74245640606262 H 0.0 **** 0.06
6390 H 26.569003905704335 81.30950644034644 121.55554028108878 H 0.0 **** 0.06
6391 C 54.87549676297431 14.69374589672941 3.6823464045121455 C 0.0 **** -0.24
6392 H 55.87833555577822 15.095991800179348 3.8233756814553033 H 0.0 **** 0.06
6393 H 54.21544770884904 15.482744847173137 3.3183508723211332 H 0.0 **** 0.06
6394 H 54.49886209309409 14.314545623044438 4.63242124100438 H 0.0 **** 0.06
6395 H 54.90799263401732 13.88275001397463 2.9549542193010865 H 0.0 **** 0.06
6396 C 109.2656924712565 118.61557484972076 42.02254054246106 C 0.0 **** -0.24
6397 H 108.27115481598713 118.26497676441551 42.297534210399846 H 0.0 **** 0.06
6398 H 109.54345493650709 118.19785104882186 41.05506314103053 H 0.0 **** 0.06
6399 H 109.98493567947179 118.2952424040684 42.77639533292597 H 0.0 **** 0.06
6400 H 109.26377662373721 119.7039082042399 41.96193898838976 H 0.0 **** 0.06
6401 C 65.96796635091738 93.39254460950039 52.01491799778489 C 0.0 **** -0.24
6402 H 66.45052074141822 94.20431381747228 51.470152225346254 H 0.0 **** 0.06
6403 H 66.69365940630308 92.60143653495612 52.20536574833875 H 0.0 **** 0.06
6404 H 65.14346021130213 92.99602223454674 51.42195225825503 H 0.0 **** 0.06
6405 H 65.58435860303061 93.76999299919682 52.96288240867901 H 0.0 **** 0.06
6406 C 28.592338514154235 30.12526025061475 10.423507223792484 C 0.0 **** -0.24
6407 H 28.25248616951525 29.4534367429698 11.211855039261437 H 0.0 **** 0.06
6408 H 27.780725816623217 30.291652121505074 9.714665688557432 H 0.0 **** 0.06
6409 H 29.441266042709373 29.679188475977412 9.907095919093138 H 0.0 **** 0.06
6410 H 28.89212393184924 31.077183203763795 10.86191241124908 H 0.0 **** 0.06
6411 C 112.58239881613156 35.54774083474783 95.18636029853928 C 0.0 **** -0.24
6412 H 112.34009793038871 35.61239039221735 96.2473906719216 H 0.0 **** 0.06
6413 H 111.69203516278986 35.25975089229672 94.62724933011134 H 0.0 **** 0.06
6414 H 113.36261336669241 34.800443222386264 95.03736261502759 H 0.0 **** 0.06
6415 H 112.93640223381135 36.516682014391094 94.8353642328716 H 0.0 **** 0.06
6416 C 92.34106310254722 25.7815032415117 115.99412451217336 C 0.0 **** -0.24
6417 H 91.89461069979373 26.713520289602513 115.64711126051219 H 0.0 **** 0.06
6418 H 93.40737023423787 25.78326669317221 115.76703923323618 H 0.0 **** 0.06
6419 H 91.86358809970147 24.940356175754914 115.49177112061295 H 0.0 **** 0.06
6420 H 92.19812178440256 25.689950896129858 117.07129474417087 H 0.0 **** 0.06
6421 C 57.83986932892407 26.724664187970035 28.623091026643067 C 0.0 **** -0.24
6422 H 58.16776988645661 26.089701887534886 27.79988156192968 H 0.0 **** 0.06
6423 H 56.78554153805709 26.538937345890446 28.82779606179244 H 0.0 **** 0.06
6424 H 57.97777976119704 27.771735684207982 28.351455685769622 H 0.0 **** 0.06
6425 H 58.428873507208195 26.49993876940198 29.51222221201732 H 0.0 **** 0.06
6426 C 35.857935924737184 36.65828790826753 114.80678735102776 C 0.0 **** -0.24
6427 H 36.22455391527974 36.89511978313332 113.80825513307548 H 0.0 **** 0.06
6428 H 36.36945986984229 35.77007419313697 115.18063287651671 H 0.0 **** 0.06
6429 H 34.78558147247772 36.468968756390844 114.76353378914172 H 0.0 **** 0.06
6430 H 36.05273909538237 37.4978940838472 115.47405484111243 H 0.0 **** 0.06
6431 C 51.124775254098566 29.164682853847467 31.117769813041207 C 0.0 **** -0.24
6432 H 51.027673920675156 30.110689943781495 31.649033912455025 H 0.0 **** 0.06
6433 H 50.38881521104874 29.122853855704307 30.3139222310636 H 0.0 **** 0.06
6434 H 50.95503161655021 28.34023841717692 31.80991658062203 H 0.0 **** 0.06
6435 H 52.12671994148313 29.084719517509825 30.695924553800467 H 0.0 **** 0.06
6436 C 80.15387003221807 35.197803954177516 47.70032676433502 C 0.0 **** -0.24
6437 H 79.0876500128247 35.139226599721844 47.48575236201316 H 0.0 **** 0.06
6438 H 80.30874284740938 35.18218609703101 48.779428350011386 H 0.0 **** 0.06
6439 H 80.55710022714277 36.12357192999271 47.28897799268461 H 0.0 **** 0.06
6440 H 80.66289998918208 34.34742095226297 47.24801504350185 H 0.0 **** 0.06
6441 C 77.61596102096354 123.26858516686882 13.291231348532477 C 0.0 **** -0.24
6442 H 77.00993955641178 123.0979421792245 14.181247463092433 H 0.0 **** 0.06
6443 H 78.53949720811607 122.69275501634976 13.366426865927423 H 0.0 **** 0.06
6444 H 77.85355858743566 124.32958000241044 13.211287076532415 H 0.0 **** 0.06
6445 H 77.06080851806888 122.95209380092994 12.408437715492568 H 0.0 **** 0.06
6446 C 101.61064143842586 15.669097480937324 121.49602932848285 C 0.0 **** -0.24
6447 H 101.25141554664373 15.535420067558604 120.47590787206653 H 0.0 **** 0.06
6448 H 102.37073666743152 14.918619971495062 121.71494369456482 H 0.0 **** 0.06
6449 H 100.77798516159999 15.557008669577783 122.19191181782 H 0.0 **** 0.06
6450 H 102.04099230435514 16.663963580742248 121.60278226336106 H 0.0 **** 0.06
6451 C 16.46664683311596 100.37842060529891 94.3584832243273 C 0.0 **** -0.24
6452 H 16.33329178767545 100.1208283972835 95.40895900620774 H 0.0 **** 0.06
6453 H 16.652508453224357 99.47179329063641 93.7831441530017 H 0.0 **** 0.06
6454 H 17.314068546146103 101.05561717555997 94.25527027265272 H 0.0 **** 0.06
6455 H 15.5643424757817 100.86599842832766 93.98677564460971 H 0.0 **** 0.06
6456 C 101.65953643427218 19.906190200474214 8.905687162412594 C 0.0 **** -0.24
6457 H 101.5446054048569 18.867440354408927 8.596858253251913 H 0.0 **** 0.06
6458 H 100.69835455566096 20.292327431346564 9.245496168290352 H 0.0 **** 0.06
6459 H 102.0129139110673 20.4982752126416 8.061167515579381 H 0.0 **** 0.06
6460 H 102.38388623347339 19.96501950671353 9.71851262161973 H 0.0 **** 0.06
6461 C 49.07323550211072 88.97780987955346 34.92553949911397 C 0.0 **** -0.24
6462 H 48.67134582508112 89.95906431157519 34.67290905892796 H 0.0 **** 0.06
6463 H 49.18485952712001 88.8988389148974 36.00678709066656 H 0.0 **** 0.06
6464 H 50.04508182703387 88.84924217872734 34.450108412991625 H 0.0 **** 0.06
6465 H 48.39073545176683 88.20442691499719 34.57256329473873 H 0.0 **** 0.06
6466 C 76.08529452068942 50.17327879757349 86.8046126918953 C 0.0 **** -0.24
6467 H 76.45609093370521 50.81938397016043 86.00907588067291 H 0.0 **** 0.06
6468 H 75.00683722153616 50.049950713133626 86.698759875777 H 0.0 **** 0.06
6469 H 76.30681932925754 50.62426694172309 87.77104637916776 H 0.0 **** 0.06
6470 H 76.57083692749546 49.19969997041983 86.73719942747898 H 0.0 **** 0.06
6471 C 5.957535157797366 118.58477135378476 22.902516521570952 C 0.0 **** -0.24
6472 H 6.933690850378468 118.10616859796724 22.986803077786938 H 0.0 **** 0.06
6473 H 5.236953879033948 118.05174057423653 23.523627277660935 H 0.0 **** 0.06
6474 H 5.630377794268298 118.56028545967321 21.863493346088504 H 0.0 **** 0.06
6475 H 6.0311312539445225 119.61966157657402 23.236803152549292 H 0.0 **** 0.06
6476 C 48.541676057949076 105.2504888817567 5.483195547784703 C 0.0 **** -0.24
6477 H 47.70347546906845 105.63043929986708 4.898884694260516 H 0.0 **** 0.06
6478 H 49.47718800102865 105.60246462382608 5.04825739605522 H 0.0 **** 0.06
6479 H 48.52368490663281 104.1603569755973 5.475482665837802 H 0.0 **** 0.06
6480 H 48.46073798290985 105.60810985076589 6.510359143814327 H 0.0 **** 0.06
6481 C 119.67207982879503 20.334504896368912 98.26650865598147 C 0.0 **** -0.24
6482 H 120.5800237788369 20.89584972233331 98.04452552247879 H 0.0 **** 0.06
6483 H 119.93857625595172 19.36942669134652 98.69713309230562 H 0.0 **** 0.06
6484 H 119.10679275743715 20.180338200627887 97.34792343346042 H 0.0 **** 0.06
6485 H 119.0640654212998 20.89477639077444 98.97789471375401 H 0.0 **** 0.06
6486 C 98.4246461157719 58.38684698208499 43.84697512988842 C 0.0 **** -0.24
6487 H 97.91462436395028 59.3500040670865 43.86217201040682 H 0.0 **** 0.06
6488 H 98.02019626950812 57.74968562132756 44.63510111499164 H 0.0 **** 0.06
6489 H 99.4912065622571 58.53675737713698 44.01164553689196 H 0.0 **** 0.06
6490 H 98.26937125683656 57.90900190596031 42.879282745975274 H 0.0 **** 0.06
6491 C 16.49547893687418 113.09212435422317 73.22814474274642 C 0.0 **** -0.24
6492 H 15.509304461165584 112.92984575650931 73.66288288792958 H 0.0 **** 0.06
6493 H 16.435428721963547 112.9880423485913 72.14379667593269 H 0.0 **** 0.06
6494 H 17.193905186592815 112.35543888271658 73.62545194193726 H 0.0 **** 0.06
6495 H 16.841972884016116 114.0948385918944 73.47866184253931 H 0.0 **** 0.06
6496 C 74.60489928104272 110.58261276373669 74.01548039558615 C 0.0 **** -0.24
6497 H 74.02160462781131 109.84305884808956 73.46839450361253 H 0.0 **** 0.06
6498 H 74.36022254551813 111.58063601643944 73.65190290811177 H 0.0 **** 0.06
6499 H 75.667243834499 110.39168949622548 73.86449017109926 H 0.0 **** 0.06
6500 H 74.37178728102771 110.5151738566713 75.07776494095071 H 0.0 **** 0.06
6501 C 80.21337159805839 5.758164337066944 5.602442176321574 C 0.0 **** -0.24
6502 H 79.61164580042734 6.240664126331808 4.832646300296005 H 0.0 **** 0.06
6503 H 81.2579965719844 6.045409725302136 5.480747959421592 H 0.0 **** 0.06
6504 H 80.12169173614718 4.67573516749826 5.50894008920028 H 0.0 **** 0.06
6505 H 79.86180003963268 6.068784508390195 6.586162786547391 H 0.0 **** 0.06
6506 C 18.554804116171283 95.42583433722012 51.39760298489634 C 0.0 **** -0.24
6507 H 18.15692673357495 94.57186335428378 50.84872786689499 H 0.0 **** 0.06
6508 H 19.636703197353654 95.46891457901148 51.26529549237705 H 0.0 **** 0.06
6509 H 18.321522920486757 95.31821291213225 52.45614638723512 H 0.0 **** 0.06
6510 H 18.105157963756085 96.34276106625111 51.01703446231886 H 0.0 **** 0.06
6511 C 114.43580243126337 56.12126070906341 76.29530755617998 C 0.0 **** -0.24
6512 H 115.43339766339881 56.043553760094696 76.72912106575336 H 0.0 **** 0.06
6513 H 114.33529972521785 55.39914737606669 75.48530186261712 H 0.0 **** 0.06
6514 H 114.28649376000823 57.128195575690924 75.90662033168053 H 0.0 **** 0.06
6515 H 113.69008611706715 55.913134975736355 77.0625751530921 H 0.0 **** 0.06
6516 C 31.32878312099993 78.47354923393746 19.653719120204244 C 0.0 **** -0.24
6517 H 30.550195775824108 79.20600309320344 19.4424284302533 H 0.0 **** 0.06
6518 H 31.377171070285897 78.29622908583576 20.729327793814832 H 0.0 **** 0.06
6519 H 32.28854362501545 78.85201568208225 19.3043761092772 H 0.0 **** 0.06
6520 H 31.09784302123242 77.53946138339978 19.141363502722754 H 0.0 **** 0.06
6521 C 78.59568594940052 101.9913484559078 84.08420873887772 C 0.0 **** -0.24
6522 H 78.21081009939977 101.03596947604888 83.72890852900363 H 0.0 **** 0.06
6523 H 79.57028121550061 102.179339512302 83.63352021284908 H 0.0 **** 0.06
6524 H 78.697145494318 101.96080986435769 85.16914701997032 H 0.0 **** 0.06
6525 H 77.90604349929859 102.78738469762007 83.80551672580637 H 0.0 **** 0.06
6526 C 21.419333719702728 119.21738993003211 1.6933115793147522 C 0.0 **** -0.24
6527 H 22.094759409230065 120.06563965436503 1.8096443445707546 H 0.0 **** 0.06
6528 H 21.92001668640463 118.3072885324646 2.024902839670645 H 0.0 **** 0.06
6529 H 21.140299186109033 119.11768609131587 0.6443694553119137 H 0.0 **** 0.06
6530 H 20.525063804055783 119.380921245829 2.294812653702312 H 0.0 **** 0.06
6531 C 74.49330504975904 62.50559581738614 64.76474712471747 C 0.0 **** -0.24
6532 H 75.37470897063525 63.13580482718652 64.88465315453803 H 0.0 **** 0.06
6533 H 74.55887019922889 61.966218553600555 63.818971690394676 H 0.0 **** 0.06
6534 H 73.59908941957502 63.12926372509841 64.76632211830886 H 0.0 **** 0.06
6535 H 74.44224603924192 61.79345272360641 65.58743650502004 H 0.0 **** 0.06
6536 C 45.83468240348762 15.405264308491013 48.82661118291719 C 0.0 **** -0.24
6537 H 46.83928522425745 15.797247406995396 48.993402277307126 H 0.0 **** 0.06
6538 H 45.1160126469276 15.995152479572255 49.39528808593886 H 0.0 **** 0.06
6539 H 45.79241160344546 14.365755018369157 49.15222343343024 H 0.0 **** 0.06
6540 H 45.59464291445144 15.463826731839475 47.76538352224554 H 0.0 **** 0.06
6541 C 90.84819705855486 65.7915271704216 67.30725103009038 C 0.0 **** -0.24
6542 H 90.51312410085114 65.88034305550158 66.27352398992784 H 0.0 **** 0.06
6543 H 91.8527261277315 65.36912854727217 67.32770706834643 H 0.0 **** 0.06
6544 H 90.16769589736214 65.13818908226258 67.85436736304197 H 0.0 **** 0.06
6545 H 90.85853165865637 66.77762735641258 67.77145068521943 H 0.0 **** 0.06
6546 C 96.71567279371641 87.47075697959644 10.77869230853787 C 0.0 **** -0.24
6547 H 97.53484495674218 88.03182896173216 10.32855685693903 H 0.0 **** 0.06
6548 H 96.25557912257403 88.06878810737007 11.565341717945557 H 0.0 **** 0.06
6549 H 97.10160939778837 86.5439915306253 11.204165560796639 H 0.0 **** 0.06
6550 H 95.9724041884134 87.23876380975855 10.015351819340253 H 0.0 **** 0.06
6551 C 72.4895339325308 41.65929372398125 123.68935504877734 C 0.0 **** -0.24
6552 H 72.6233171919234 40.66055552075437 124.10333170948257 H 0.0 **** 0.06
6553 H 72.1680198874764 41.582782080947766 122.65008104282998 H 0.0 **** 0.06
6554 H 73.43377255072666 42.20150716319176 123.73809638186094 H 0.0 **** 0.06
6555 H 71.7334954056058 42.194099757404615 124.26462714393605 H 0.0 **** 0.06
6556 C 58.55610066434036 110.98729535301379 33.98033202457728 C 0.0 **** -0.24
6557 H 58.61996650391717 111.24782936719765 32.92308040989761 H 0.0 **** 0.06
6558 H 58.084426782662035 111.80409568653914 34.52764795717749 H 0.0 **** 0.06
6559 H 59.558232346616876 110.81601491863269 34.37342846656486 H 0.0 **** 0.06
6560 H 57.960330106750575 110.08105247769696 34.094748218579525 H 0.0 **** 0.06
6561 C 72.44079858728544 32.944101090633865 9.979547460866257 C 0.0 **** -0.24
6562 H 72.96191872394938 32.05284206917895 10.330568716236087 H 0.0 **** 0.06
6563 H 71.52836172348802 32.65049365643867 9.461751859745306 H 0.0 **** 0.06
6564 H 73.0862023232422 33.49400560990287 9.294703875598373 H 0.0 **** 0.06
6565 H 72.19020619060942 33.57699654605105 10.830445493302136 H 0.0 **** 0.06
6566 C 117.00948892292837 7.563867259760691 116.16976897883774 C 0.0 **** -0.24
6567 H 117.49738734959845 8.307498772705213 116.80085777591574 H 0.0 **** 0.06
6568 H 116.07306161895497 7.253150845443141 116.63267166924716 H 0.0 **** 0.06
6569 H 117.66278835982797 6.698930437391873 116.0567520600313 H 0.0 **** 0.06
6570 H 116.80533232680745 7.996603302532897 115.19024801190594 H 0.0 **** 0.06
6571 C 16.036207952172333 72.8716162481904 29.8511065020215 C 0.0 **** -0.24
6572 H 16.917493507703227 73.40844555593414 30.203581783301644 H 0.0 **** 0.06
6573 H 15.407032337337853 72.6086850149619 30.70176856603299 H 0.0 **** 0.06
6574 H 16.346390836956914 71.96509012013225 29.332715152989913 H 0.0 **** 0.06
6575 H 15.475122507453932 73.50805479636283 29.167372075816424 H 0.0 **** 0.06
6576 C 19.424451984160132 26.397547292241285 15.898532104983417 C 0.0 **** -0.24
6577 H 18.61753309757865 26.24730527349577 15.181833484309493 H 0.0 **** 0.06
6578 H 19.992288954477033 25.4732560589647 16.003544394946232 H 0.0 **** 0.06
6579 H 19.003895486258585 26.678081264064907 16.864098580255757 H 0.0 **** 0.06
6580 H 20.08183190023079 27.191191949746802 15.5437723293403 H 0.0 **** 0.06
6581 C 110.90875186339294 70.83676241220994 75.07507758019314 C 0.0 **** -0.24
6582 H 110.7303734063237 69.89806278519265 74.55038542973244 H 0.0 **** 0.06
6583 H 110.6699774509718 71.67216657109819 74.41643016921591 H 0.0 **** 0.06
6584 H 111.95564663848545 70.8934404874058 75.37212235298368 H 0.0 **** 0.06
6585 H 110.27703751855618 70.8820957523019 75.96323279201296 H 0.0 **** 0.06
6586 C 43.457986083997156 74.8811806333571 76.68996959143648 C 0.0 **** -0.24
6587 H 43.178996396126735 74.95998751065082 75.63948022506173 H 0.0 **** 0.06
6588 H 43.041890797751165 73.96351938696819 77.10825701567512 H 0.0 **** 0.06
6589 H 43.0667581997007 75.7396379099863 77.23591148539525 H 0.0 **** 0.06
6590 H 44.54482674750278 74.86036873494706 76.77673941416519 H 0.0 **** 0.06
6591 C 108.37560205803047 85.39532325650549 95.94282796349779 C 0.0 **** -0.24
6592 H 107.65084135138687 85.5868998880141 95.15098576506216 H 0.0 **** 0.06
6593 H 109.19144584646003 86.11508190127762 95.86992282188311 H 0.0 **** 0.06
6594 H 108.77202197095005 84.38590358654682 95.83573520112577 H 0.0 **** 0.06
6595 H 107.88933135993842 85.49430586174259 96.91303254485018 H 0.0 **** 0.06
6596 C 79.13350713530713 116.92594928041638 94.55441416916858 C 0.0 **** -0.24
6597 H 80.08406413847234 116.82597464324004 95.07810219332877 H 0.0 **** 0.06
6598 H 78.94580901554494 117.97809145615781 94.34013405468045 H 0.0 **** 0.06
6599 H 78.33209116382233 116.53313336865341 95.18124499285099 H 0.0 **** 0.06
6600 H 79.17246699946799 116.36472446712915 93.62048399086753 H 0.0 **** 0.06
6601 C 60.40820126907985 111.69385812949855 105.84489039503146 C 0.0 **** -0.24
6602 H 60.509921399388105 111.2506933165911 106.83534011658708 H 0.0 **** 0.06
6603 H 60.81519130837509 111.01128820396524 105.09858875794171 H 0.0 **** 0.06
6604 H 60.95391370088592 112.63725454022902 105.81157516887913 H 0.0 **** 0.06
6605 H 59.354806971949245 111.87569350117357 105.63488803824336 H 0.0 **** 0.06
6606 C 7.129730183920092 28.070956616266614 37.716837405825544 C 0.0 **** -0.24
6607 H 6.43957025569091 27.7926903501926 36.92062082420236 H 0.0 **** 0.06
6608 H 7.370687667323011 29.130860058527162 37.63593693681511 H 0.0 **** 0.06
6609 H 8.043072794607056 27.482745671041727 37.626184867556276 H 0.0 **** 0.06
6610 H 6.6663011679613895 27.875526095595887 38.683916084678714 H 0.0 **** 0.06
6611 C 53.924028232352455 99.29857608892559 12.30963059429655 C 0.0 **** -0.24
6612 H 54.50857273823699 98.77775595297857 11.550890294765168 H 0.0 **** 0.06
6613 H 52.916922714428736 98.88191105145557 12.341418503485102 H 0.0 **** 0.06
6614 H 53.87115845181211 100.35850678409577 12.06322776620675 H 0.0 **** 0.06
6615 H 54.39912520908311 99.17484570025061 13.28249817431822 H 0.0 **** 0.06
6616 C 100.33385831905682 73.22004639536111 36.30800953940141 C 0.0 **** -0.24
6617 H 101.26092916807434 72.81759419196051 35.899838535835556 H 0.0 **** 0.06
6618 H 100.33686074787133 74.30600230437422 36.21420412110501 H 0.0 **** 0.06
6619 H 100.2508057614983 72.94555324601286 37.35962757508514 H 0.0 **** 0.06
6620 H 99.48709281471241 72.8101961306785 35.756874635429654 H 0.0 **** 0.06
6621 C 116.72655495036159 57.528118013444754 67.3583978744876 C 0.0 **** -0.24
6622 H 115.91328132671127 57.662579147580715 66.64413041219004 H 0.0 **** 0.06
6623 H 116.404886762374 57.86793901908348 68.34257008404632 H 0.0 **** 0.06
6624 H 117.59055602857296 58.10993281504656 67.03672194923061 H 0.0 **** 0.06
6625 H 116.99617629159928 56.473513020403715 67.40700139638676 H 0.0 **** 0.06
6626 C 85.07627375906664 12.01340711606042 59.97829954269375 C 0.0 **** -0.24
6627 H 84.24129147462463 12.69921495997471 60.12344057515128 H 0.0 **** 0.06
6628 H 84.69359601372193 11.021964767837915 59.73346574805774 H 0.0 **** 0.06
6629 H 85.6658875061794 11.960015797671872 60.89323706884804 H 0.0 **** 0.06
6630 H 85.7033984636027 12.372597137094033 59.16270294599363 H 0.0 **** 0.06
6631 C 85.88255072897442 103.46707315819555 22.601530311904668 C 0.0 **** -0.24
6632 H 84.92387948717729 103.25517109485799 22.12982321556796 H 0.0 **** 0.06
6633 H 85.82823215706304 104.42387378854784 23.12227481113858 H 0.0 **** 0.06
6634 H 86.66038034011481 103.51066812660991 21.83931887784857 H 0.0 **** 0.06
6635 H 86.1176654312055 102.6781391947232 23.315601007148793 H 0.0 **** 0.06
6636 C 49.34231981665641 23.343905034830442 49.342340023126184 C 0.0 **** -0.24
6637 H 50.276942220256814 23.788463957092404 49.68219433993238 H 0.0 **** 0.06
6638 H 49.270126545442125 23.434873703132894 48.257961580109765 H 0.0 **** 0.06
6639 H 48.503308221245064 23.86014642329431 49.8076130779165 H 0.0 **** 0.06
6640 H 49.319206805994405 22.290245493410424 49.621013814664394 H 0.0 **** 0.06
6641 C 50.573787560742375 99.7336610902729 38.25669147734354 C 0.0 **** -0.24
6642 H 50.721327748637606 98.66770106510616 38.43340844668646 H 0.0 **** 0.06
6643 H 50.64375075146012 100.27175195917832 39.20212264096969 H 0.0 **** 0.06
6644 H 49.59000704071747 99.89610166242858 37.81616262999327 H 0.0 **** 0.06
6645 H 51.34167302307313 100.09710714119764 37.57349632732007 H 0.0 **** 0.06
6646 C 117.61046194192446 124.0142031503944 46.125389417489515 C 0.0 **** -0.24
6647 H 117.18435937051666 124.20642452807547 47.10971518191957 H 0.0 **** 0.06
6648 H 118.32722466958086 124.79771052458379 45.880211778386865 H 0.0 **** 0.06
6649 H 116.81357676347574 124.00510489257682 45.38036253729774 H 0.0 **** 0.06
6650 H 118.11388539145398 123.04796162656302 46.130267984695365 H 0.0 **** 0.06
6651 C 65.12331599525322 17.14081263075778 62.40810502629671 C 0.0 **** -0.24
6652 H 65.71813328775477 16.408190805029335 62.95339242224759 H 0.0 **** 0.06
6653 H 65.20596969392045 18.11226727779338 62.897118346187085 H 0.0 **** 0.06
6654 H 64.07953136677975 16.82628763596621 62.39875594172872 H 0.0 **** 0.06
6655 H 65.48901883734331 17.216986929827982 61.383781517422904 H 0.0 **** 0.06
6656 C 34.35100292117133 13.81930438253113 39.277462960196395 C 0.0 **** -0.24
6657 H 34.85755366310789 14.687177034120225 39.699823135810455 H 0.0 **** 0.06
6658 H 33.881266672332345 14.097218173260387 38.333676693975974 H 0.0 **** 0.06
6659 H 33.58945912754734 13.469390328572103 39.973712815759946 H 0.0 **** 0.06
6660 H 35.07722427027494 13.024865904942374 39.103486519891256 H 0.0 **** 0.06
6661 C 80.64733888906292 20.45214281516843 88.65326863164253 C 0.0 **** -0.24
6662 H 80.34692950586904 19.97208854599512 87.72215650902197 H 0.0 **** 0.06
6663 H 80.08432625845904 20.020816332475576 89.4810868249885 H 0.0 **** 0.06
6664 H 80.44337262905887 21.52169770120789 88.59313648873302 H 0.0 **** 0.06
6665 H 81.71337011461017 20.294284375335153 88.81645208403091 H 0.0 **** 0.06
6666 C 52.78734999119587 84.22424397136818 22.474867593789952 C 0.0 **** -0.24
6667 H 53.41704156491835 83.50808526395562 21.948351824781504 H 0.0 **** 0.06
6668 H 53.3394106023394 84.64344302354014 23.31595554042702 H 0.0 **** 0.06
6669 H 51.892478448757856 83.72042223726895 22.84091447288403 H 0.0 **** 0.06
6670 H 52.50059463708976 85.02470835135423 21.792550311883033 H 0.0 **** 0.06
6671 C 6.835005279132645 92.45817775416072 69.59920059345788 C 0.0 **** -0.24
6672 H 7.7800213703740155 93.00145352631965 69.59834313770511 H 0.0 **** 0.06
6673 H 6.81706959096789 91.75943775924793 68.7632404273061 H 0.0 **** 0.06
6674 H 6.01083340755298 93.16466286925272 69.49977110022283 H 0.0 **** 0.06
6675 H 6.733422190975659 91.90921588204029 70.53551061676873 H 0.0 **** 0.06
6676 C 4.477318061315799 61.25906256114996 71.3669885986121 C 0.0 **** -0.24
6677 H 4.922165031832407 60.690329629723976 70.5507908887288 H 0.0 **** 0.06
6678 H 5.262920861566215 61.610257368089776 72.03588929830428 H 0.0 **** 0.06
6679 H 3.7870600238933037 60.62135630881443 71.91888737913251 H 0.0 **** 0.06
6680 H 3.9360345431714734 62.11349669309715 70.96131366936369 H 0.0 **** 0.06
6681 C 110.90349676639168 53.18811181947912 47.63249369523308 C 0.0 **** -0.24
6682 H 110.79270117724195 54.211648555077005 47.989921410336365 H 0.0 **** 0.06
6683 H 111.29441292160814 52.56230249712756 48.43547378163774 H 0.0 **** 0.06
6684 H 111.59432472012108 53.17179994070668 46.788905866859054 H 0.0 **** 0.06
6685 H 109.93327045692023 52.80761760482547 47.313768505535535 H 0.0 **** 0.06
6686 C 115.11210926672626 34.81050066652753 20.875595881727804 C 0.0 **** -0.24
6687 H 114.65472235800561 35.01786339747636 19.908350513399625 H 0.0 **** 0.06
6688 H 115.71760439709925 35.66430001765022 21.180786078655558 H 0.0 **** 0.06
6689 H 115.74412679111666 33.92636008644294 20.796104016444588 H 0.0 **** 0.06
6690 H 114.33188822273854 34.6341938568614 21.61644996328164 H 0.0 **** 0.06
6691 C 94.03609081461536 123.75429861993231 79.66717484228218 C 0.0 **** -0.24
6692 H 94.86173257598477 123.10331796020819 79.9531005703258 H 0.0 **** 0.06
6693 H 93.95857103054294 123.78838155121895 78.58034930072185 H 0.0 **** 0.06
6694 H 94.21675113449717 124.75959353131267 80.05034295518581 H 0.0 **** 0.06
6695 H 93.10666476200777 123.36837725263874 80.08647383305095 H 0.0 **** 0.06
6696 C 123.01619290478688 15.603053985492068 120.63886150342324 C 0.0 **** -0.24
6697 H 122.91636298745993 15.485848533588864 119.55921867237473 H 0.0 **** 0.06
6698 H 123.03242964564213 16.6643331251355 120.88769615566889 H 0.0 **** 0.06
6699 H 123.94347586306303 15.136681606532989 120.97068795257445 H 0.0 **** 0.06
6700 H 122.17055871118659 15.126633552517148 121.13548119797792 H 0.0 **** 0.06
6701 C 42.043153192121736 121.9641625706156 116.78041302549359 C 0.0 **** -0.24
6702 H 42.035361693960226 122.71928789721187 115.99476507036434 H 0.0 **** 0.06
6703 H 41.441065112152216 121.11032746428907 116.46961845649489 H 0.0 **** 0.06
6704 H 41.62814283988439 122.38760936526847 117.69514355183968 H 0.0 **** 0.06
6705 H 43.06775163757584 121.64028574924549 116.96254354116115 H 0.0 **** 0.06
6706 C 18.162391179470774 105.67380494334284 74.60245687744369 C 0.0 **** -0.24
6707 H 17.713844079471414 106.02780883464311 73.67360462104297 H 0.0 **** 0.06
6708 H 18.587404356828586 104.68233919114257 74.44514450142627 H 0.0 **** 0.06
6709 H 17.39731849894781 105.62353444393275 75.37788736043451 H 0.0 **** 0.06
6710 H 18.948546850686853 106.3622910671811 74.91108737219689 H 0.0 **** 0.06
6711 C 115.48552371847387 94.00481841621126 64.78247819115496 C 0.0 **** -0.24
6712 H 116.53787234997955 93.92485789870229 65.05867827902523 H 0.0 **** 0.06
6713 H 115.29948441397806 93.41224070406305 63.8867875442625 H 0.0 **** 0.06
6714 H 115.241141864079 95.04858908486005 64.58544773127284 H 0.0 **** 0.06
6715 H 114.86703565943603 93.63503054953438 65.59928971961999 H 0.0 **** 0.06
6716 C 62.49153989521932 79.56306916330948 117.50532513026371 C 0.0 **** -0.24
6717 H 63.24590122333569 78.98300765314161 118.03711489180284 H 0.0 **** 0.06
6718 H 62.97817282812639 80.19383403579582 116.76014939859516 H 0.0 **** 0.06
6719 H 61.949320727740655 80.18845809613913 118.21349226050023 H 0.0 **** 0.06
6720 H 61.79567821707349 78.88666486183956 117.00989965239262 H 0.0 **** 0.06
6721 C 8.65440971431467 15.005928990154757 100.50137933121243 C 0.0 **** -0.24
6722 H 8.593073871840375 13.937219497865442 100.70746343316603 H 0.0 **** 0.06
6723 H 9.56342453363655 15.410085782550595 100.9475038467101 H 0.0 **** 0.06
6724 H 7.786218171194573 15.507603548274346 100.92830176854739 H 0.0 **** 0.06
6725 H 8.674599819897068 15.167275105771296 99.42384489255915 H 0.0 **** 0.06
6726 C 33.27522833188674 111.72887910157732 22.998446027713243 C 0.0 **** -0.24
6727 H 32.429451719831505 111.7116565391612 23.68590004044924 H 0.0 **** 0.06
6728 H 34.169929123317395 112.05349910445125 23.530974080563936 H 0.0 **** 0.06
6729 H 33.06616706680585 112.42072615509903 22.18249765277932 H 0.0 **** 0.06
6730 H 33.43530123260088 110.72904929478028 22.595220633303143 H 0.0 **** 0.06
6731 C 100.31658739895622 48.54180692508692 84.34548452327239 C 0.0 **** -0.24
6732 H 100.95892880021077 49.33412186520093 84.73015617492842 H 0.0 **** 0.06
6733 H 99.83259048229223 48.030356971243606 85.1770364423312 H 0.0 **** 0.06
6734 H 100.9179896067383 47.830637119013375 83.78011602033868 H 0.0 **** 0.06
6735 H 99.55769753667101 48.9745350798361 83.6925332971481 H 0.0 **** 0.06
6736 C 19.583704575901606 52.478071962875276 34.29846236626284 C 0.0 **** -0.24
6737 H 19.372598247248902 53.25654909298521 33.5659972619157 H 0.0 **** 0.06
6738 H 18.868979042718024 51.66354854734277 34.1785801142928 H 0.0 **** 0.06
6739 H 19.497145640499525 52.89223895741452 35.3037688082681 H 0.0 **** 0.06
6740 H 20.595179767406762 52.10079170746707 34.14736219741678 H 0.0 **** 0.06
6741 C 55.49631416656989 7.198066973285336 98.94174345653059 C 0.0 **** -0.24
6742 H 54.7887924199577 6.424920598897273 99.24220210016998 H 0.0 **** 0.06
6743 H 55.5540939318728 7.234928023800933 97.85322816171518 H 0.0 **** 0.06
6744 H 56.48055180050055 6.969069246408026 99.35099283942361 H 0.0 **** 0.06
6745 H 55.16089924753334 8.163736476675723 99.32047551020364 H 0.0 **** 0.06
6746 C 20.609515398275676 61.53471565849553 6.099637149745718 C 0.0 **** -0.24
6747 H 20.497283960197933 61.65110389966728 7.177473211663909 H 0.0 **** 0.06
6748 H 19.71916411107844 61.056472568385914 5.691309042659952 H 0.0 **** 0.06
6749 H 21.482411206328777 60.91727235184324 5.889588737257526 H 0.0 **** 0.06
6750 H 20.738567394478764 62.515251367681074 5.640433426958964 H 0.0 **** 0.06
6751 C 122.80498859011479 120.56497718511196 120.31641669165495 C 0.0 **** -0.24
6752 H 123.18804280900042 119.54488262167072 120.3572370502513 H 0.0 **** 0.06
6753 H 121.75672308110444 120.54620541155887 120.01682063566864 H 0.0 **** 0.06
6754 H 123.38031994371354 121.14048978428534 119.59143339959174 H 0.0 **** 0.06
6755 H 122.89335948008309 121.02578004382553 121.29971062532837 H 0.0 **** 0.06
6756 C 56.24055959353109 44.66049548212522 46.93892539999621 C 0.0 **** -0.24
6757 H 56.5345883358774 43.6707759506662 47.28836359898156 H 0.0 **** 0.06
6758 H 55.32106741716245 44.96355801965924 47.439497004595154 H 0.0 **** 0.06
6759 H 56.075548484985916 44.6307117840466 45.86186598834823 H 0.0 **** 0.06
6760 H 57.031175147533304 45.37552911358455 47.16599509903509 H 0.0 **** 0.06
6761 C 47.97697018689314 122.57552968413202 38.961974751301206 C 0.0 **** -0.24
6762 H 47.74491129984227 121.5136451154211 39.03785949822012 H 0.0 **** 0.06
6763 H 48.70610388665625 122.8438782018467 39.72760777121882 H 0.0 **** 0.06
6764 H 47.06679297063988 123.15726724254037 39.10729008929149 H 0.0 **** 0.06
6765 H 48.390721491333636 122.78780510344927 37.975734539500884 H 0.0 **** 0.06
6766 C 30.4029245295352 61.953457995038775 101.56775450090603 C 0.0 **** -0.24
6767 H 29.41978852765314 61.497777590341116 101.4414659922233 H 0.0 **** 0.06
6768 H 30.376073181436652 62.646047294792965 102.40910863766116 H 0.0 **** 0.06
6769 H 30.672812003089035 62.493414556893015 100.66007538404895 H 0.0 **** 0.06
6770 H 31.14116626248037 61.175376189367455 101.76062888548107 H 0.0 **** 0.06
6771 C 47.22478558034271 79.50292768466375 118.85694437701133 C 0.0 **** -0.24
6772 H 46.42980014384591 78.81448580871415 118.56861349217665 H 0.0 **** 0.06
6773 H 48.17244840707352 78.9662361943715 118.89999214440375 H 0.0 **** 0.06
6774 H 47.000641808825065 79.92596783429133 119.8364949585636 H 0.0 **** 0.06
6775 H 47.29393849491663 80.30512029361125 118.121877966915 H 0.0 **** 0.06
6776 C 97.85906708845528 48.77223450427488 58.36019159236281 C 0.0 **** -0.24
6777 H 98.54171571879937 47.92199025001628 58.35788789625367 H 0.0 **** 0.06
6778 H 97.50887887169614 48.95357973586988 59.376803059892254 H 0.0 **** 0.06
6779 H 97.00717969265222 48.55456026048057 57.71544083989433 H 0.0 **** 0.06
6780 H 98.37858879168999 49.655548832092904 57.991243619165104 H 0.0 **** 0.06
6781 C 39.95177524839244 5.803513694289393 78.10614104717104 C 0.0 **** -0.24
6782 H 39.63210662981014 4.7699563633961475 78.24062133260324 H 0.0 **** 0.06
6783 H 40.906216954017 5.82240758081349 77.57908809706731 H 0.0 **** 0.06
6784 H 40.06511500529504 6.277852521587647 79.08153560547319 H 0.0 **** 0.06
6785 H 39.2035302275394 6.341886634994069 77.52440255408723 H 0.0 **** 0.06
6786 C 15.248641351076934 43.25372947049357 42.13017930288041 C 0.0 **** -0.24
6787 H 14.382584538218474 43.524754416623466 42.734119523929195 H 0.0 **** 0.06
6788 H 15.661067097095927 42.310304574600934 42.48897899454337 H 0.0 **** 0.06
6789 H 16.00469686037173 44.0352098744022 42.207910678682225 H 0.0 **** 0.06
6790 H 14.945133229402295 43.14493480328457 41.08884541803988 H 0.0 **** 0.06
6791 C 117.42571677818036 91.00222914606047 12.925654558432768 C 0.0 **** -0.24
6792 H 116.73715736360725 91.15555236551177 12.093965496461749 H 0.0 **** 0.06
6793 H 116.86391806030248 90.9703460085941 13.86008618463893 H 0.0 **** 0.06
6794 H 118.14219226355983 91.82309904390934 12.959525016695125 H 0.0 **** 0.06
6795 H 117.95694777528803 90.06061477189735 12.787174593225416 H 0.0 **** 0.06
6796 C 46.82446579213553 64.37223604391332 101.26551307593468 C 0.0 **** -0.24
6797 H 47.182604813686 63.42454814620194 100.86420925053113 H 0.0 **** 0.06
6798 H 47.613489909426676 64.836974025025 101.85692771012395 H 0.0 **** 0.06
6799 H 45.95440659756525 64.1927449194699 101.89653019435065 H 0.0 **** 0.06
6800 H 46.54841367381181 65.03246567823189 100.44444568150934 H 0.0 **** 0.06
6801 C 89.19033837459904 117.83355223400491 112.62068903506997 C 0.0 **** -0.24
6802 H 89.12399161098745 117.9916926440169 111.54378677405566 H 0.0 **** 0.06
6803 H 89.26408373489261 118.797044277937 113.12483921164704 H 0.0 **** 0.06
6804 H 90.07491823074446 117.2370085870879 112.84564215890725 H 0.0 **** 0.06
6805 H 88.30065728538528 117.30830022098257 112.96656550591877 H 0.0 **** 0.06
6806 C 76.22346681200733 119.9058485706183 110.09171378886577 C 0.0 **** -0.24
6807 H 77.23449671417077 119.63208669433067 109.78879841943723 H 0.0 **** 0.06
6808 H 76.27257527032924 120.66403246402203 110.87415824293396 H 0.0 **** 0.06
6809 H 75.70721148890665 119.02418445530111 110.47091098227715 H 0.0 **** 0.06
6810 H 75.68247221711046 120.30370872506066 109.23351228609145 H 0.0 **** 0.06
6811 C 98.88176584182294 81.55151128784837 69.57992577393122 C 0.0 **** -0.24
6812 H 98.15279870316476 81.20365088660992 70.31119501863618 H 0.0 **** 0.06
6813 H 99.7384551936123 81.98334837617676 70.09881292292278 H 0.0 **** 0.06
6814 H 98.42428340469337 82.30743718878284 68.94164483277399 H 0.0 **** 0.06
6815 H 99.21288246452596 80.71166418462349 68.96951910268515 H 0.0 **** 0.06
6816 C 73.75516218086284 118.11896609119697 102.57481736663647 C 0.0 **** -0.24
6817 H 73.61896402748303 119.08006952356723 102.07970937357632 H 0.0 **** 0.06
6818 H 74.80600548612497 117.99025975553916 102.83512057524206 H 0.0 **** 0.06
6819 H 73.44631992861846 117.3178897688157 101.90345019289362 H 0.0 **** 0.06
6820 H 73.14935928122512 118.08764531686589 103.48098932483356 H 0.0 **** 0.06
6821 C 115.6811309370604 80.05541480277165 122.21623064321295 C 0.0 **** -0.24
6822 H 115.15666121823573 79.67974587212166 121.3370093196089 H 0.0 **** 0.06
6823 H 116.63764204941079 80.48188696746786 121.91376956969548 H 0.0 **** 0.06
6824 H 115.85320405283024 79.23481274383718 122.91351098098724 H 0.0 **** 0.06
6825 H 115.07651040163742 80.8219360371759 122.70067661199316 H 0.0 **** 0.06
6826 C 99.5254206022912 34.740848889731325 21.86684239085571 C 0.0 **** -0.24
6827 H 99.3692423376138 35.10108388877501 22.883845252757254 H 0.0 **** 0.06
6828 H 98.79359118901658 35.20220272536267 21.20256222376085 H 0.0 **** 0.06
6829 H 99.40591568575718 33.65703816902388 21.842786644794018 H 0.0 **** 0.06
6830 H 100.53109544842971 35.0028184773835 21.5394241593157 H 0.0 **** 0.06
6831 C 122.56210887074883 108.6041524598164 62.2956201261548 C 0.0 **** -0.24
6832 H 122.69045942653375 108.61963321583904 63.37780133716478 H 0.0 **** 0.06
6833 H 123.3860444884343 109.14160717216127 61.8246675665838 H 0.0 **** 0.06
6834 H 121.61831390324411 109.08403546196807 62.03477510920413 H 0.0 **** 0.06
6835 H 122.55318392866985 107.57218785702415 61.94552430499664 H 0.0 **** 0.06
6836 C 25.692197550942737 80.36806183798264 92.8646901305642 C 0.0 **** -0.24
6837 H 25.867004791942314 79.45167254028517 93.42831747666888 H 0.0 **** 0.06
6838 H 24.628979510589872 80.45998439165328 92.64195402922144 H 0.0 **** 0.06
6839 H 26.257486708674463 80.3344733266684 91.93310829853459 H 0.0 **** 0.06
6840 H 26.01590782168494 81.22535748568438 93.45510401290497 H 0.0 **** 0.06
6841 C 111.44575341943933 116.73835302766761 37.70401038924916 C 0.0 **** -0.24
6842 H 112.04538329418946 117.6260324574827 37.502766889088605 H 0.0 **** 0.06
6843 H 110.52058403011732 117.0307084981537 38.20151680226405 H 0.0 **** 0.06
6844 H 112.00511071555128 116.05892050352799 38.34608008613003 H 0.0 **** 0.06
6845 H 111.2103349980665 116.23921823490406 36.7645444336535 H 0.0 **** 0.06
6846 C 27.359850089829763 55.73891988190863 20.403382293422737 C 0.0 **** -0.24
6847 H 27.325613805718206 55.59800736761949 21.48375549483285 H 0.0 **** 0.06
6848 H 27.589932242450118 56.781376435546036 20.180841731839564 H 0.0 **** 0.06
6849 H 26.392481195146047 55.47929358034216 19.973131989455283 H 0.0 **** 0.06
6850 H 28.131178453824674 55.097557449221625 19.97795727325763 H 0.0 **** 0.06
6851 C 97.73702915080537 83.54769449785248 74.05964823801614 C 0.0 **** -0.24
6852 H 97.440799431563 82.99914246416847 74.95403928970941 H 0.0 **** 0.06
6853 H 98.25507361578428 82.87523120676606 73.37660233231387 H 0.0 **** 0.06
6854 H 98.40097730643447 84.36570700237284 74.33895826270404 H 0.0 **** 0.06
6855 H 96.85000847503488 83.95161624762436 73.57135399958307 H 0.0 **** 0.06
6856 C 67.06250732531265 42.10700554251741 16.904779907664704 C 0.0 **** -0.24
6857 H 66.60850769328815 41.64696571546199 17.782981163806426 H 0.0 **** 0.06
6858 H 67.4409927786291 41.329188812856955 16.24175231357563 H 0.0 **** 0.06
6859 H 67.88490982002688 42.751678248005646 17.216597168677964 H 0.0 **** 0.06
6860 H 66.31445592548346 42.70182935551918 16.380015696078516 H 0.0 **** 0.06
6861 C 33.01027413140517 60.82446562838406 51.33134687948088 C 0.0 **** -0.24
6862 H 33.3387653647071 61.24829500270444 50.38181703052192 H 0.0 **** 0.06
6863 H 33.8082023447503 60.20984529849521 51.748453749283605 H 0.0 **** 0.06
6864 H 32.12485407044424 60.21129352701844 51.168408514539756 H 0.0 **** 0.06
6865 H 32.7719812417465 61.63048840045025 52.025148350647825 H 0.0 **** 0.06
6866 C 123.98072136089274 81.70005650618324 82.75820697448466 C 0.0 **** -0.24
6867 H 123.3548950622054 82.44047524662048 83.2571561489421 H 0.0 **** 0.06
6868 H 124.63497716763439 81.22545128421507 83.49105897279765 H 0.0 **** 0.06
6869 H 124.58426019303951 82.1889578228247 81.9939517498043 H 0.0 **** 0.06
6870 H 123.3477033759184 80.94404412187126 82.29315403552687 H 0.0 **** 0.06
6871 C 54.20908611694762 15.0316187436343 63.41813155079495 C 0.0 **** -0.24
6872 H 54.52067079081148 15.186129858788487 64.45088223843516 H 0.0 **** 0.06
6873 H 54.389514034050606 13.993561374275561 63.13634005353276 H 0.0 **** 0.06
6874 H 54.77910488439093 15.690902697806937 62.76389615531872 H 0.0 **** 0.06
6875 H 53.14607852345539 15.254285789503228 63.322989669595245 H 0.0 **** 0.06
6876 C 62.59175438448372 18.191003083399636 28.804137260222078 C 0.0 **** -0.24
6877 H 62.31531389852768 19.05005925813896 29.41475400393734 H 0.0 **** 0.06
6878 H 62.288082316915876 18.366548940242325 27.772424315458707 H 0.0 **** 0.06
6879 H 62.09339366833311 17.299817174994246 29.183908126104356 H 0.0 **** 0.06
6880 H 63.671867610326416 18.04811197667337 28.84564984485884 H 0.0 **** 0.06
6881 C 62.61173605306209 109.96972670341493 3.6624836992391465 C 0.0 **** -0.24
6882 H 62.13610213906249 109.01577930439569 3.886856972033115 H 0.0 **** 0.06
6883 H 63.2074683742656 109.87461225333183 2.7548268627164703 H 0.0 **** 0.06
6884 H 63.258131973954434 110.25682934167607 4.492958981479546 H 0.0 **** 0.06
6885 H 61.8467616116249 110.73242206307697 3.5175610022010915 H 0.0 **** 0.06
6886 C 4.7869659846780905 122.6731624870491 43.91858377813773 C 0.0 **** -0.24
6887 H 4.23012040903285 123.51026061467769 44.33911012993261 H 0.0 **** 0.06
6888 H 4.317602494167744 122.35477638253283 42.987724544444035 H 0.0 **** 0.06
6889 H 4.787351237797452 121.84468898075298 44.62822052128803 H 0.0 **** 0.06
6890 H 5.813270844211274 122.98175920444743 43.72181217752106 H 0.0 **** 0.06
6891 C 65.75180241964502 78.77641642822299 28.677670590892177 C 0.0 **** -0.24
6892 H 65.80710944141886 77.90962301056778 28.0190789016483 H 0.0 **** 0.06
6893 H 64.81022178477681 78.75582373543136 29.22594016787511 H 0.0 **** 0.06
6894 H 65.80547607021239 79.68822676712367 28.082259985352465 H 0.0 **** 0.06
6895 H 66.58429361468866 78.75249438273062 29.38100825052024 H 0.0 **** 0.06
6896 C 56.007512585294876 107.63347019252103 18.18835871494906 C 0.0 **** -0.24
6897 H 56.0586963728847 106.93997717697152 19.027889761665392 H 0.0 **** 0.06
6898 H 55.01492670026511 108.08025536057733 18.145557955577146 H 0.0 **** 0.06
6899 H 56.2040433242957 107.09467858864684 17.261447725513506 H 0.0 **** 0.06
6900 H 56.75497606803873 108.4163018153501 18.31894479736684 H 0.0 **** 0.06
6901 C 74.79969947075435 3.2790499215622333 116.73132046168841 C 0.0 **** -0.24
6902 H 73.79832389019165 3.704969193368168 116.78714503820397 H 0.0 **** 0.06
6903 H 75.47011244126266 3.8403083074784696 117.38205863541677 H 0.0 **** 0.06
6904 H 75.1598317495155 3.333264099363179 115.70345114706555 H 0.0 **** 0.06
6905 H 74.76976951958353 2.237325529161284 117.0503223138856 H 0.0 **** 0.06
6906 C 25.993585635168117 73.27500964081133 97.6489265443054 C 0.0 **** -0.24
6907 H 25.407390191780394 72.98294696469833 98.52065072165976 H 0.0 **** 0.06
6908 H 27.001534366323035 73.54712599600742 97.96446074268039 H 0.0 **** 0.06
6909 H 25.52180445999131 74.12884598433175 97.16257715257824 H 0.0 **** 0.06
6910 H 26.043939673787392 72.440404089477 96.9503374667161 H 0.0 **** 0.06
6911 C 34.15832966957018 102.69902561592917 32.272839259825446 C 0.0 **** -0.24
6912 H 34.189933662789684 102.75621092599648 31.1842554098929 H 0.0 **** 0.06
6913 H 33.48028672564516 101.90085235856216 32.57483581661742 H 0.0 **** 0.06
6914 H 33.806229966455845 103.6484998836019 32.67538005234559 H 0.0 **** 0.06
6915 H 35.15818877150548 102.49163511059703 32.65404741655718 H 0.0 **** 0.06
6916 C 110.15806605628326 119.48219340893449 71.2450544130071 C 0.0 **** -0.24
6917 H 109.87641631776728 118.46022958546504 71.50029570537089 H 0.0 **** 0.06
6918 H 110.82332699329858 119.47067715162589 70.38183256702109 H 0.0 **** 0.06
6919 H 110.66972190168389 119.93945469021347 72.0917474540085 H 0.0 **** 0.06
6920 H 109.26350849531642 120.05764674324735 71.00729628628517 H 0.0 **** 0.06
6921 C 18.103475354248204 25.47220337648622 122.60693903396171 C 0.0 **** -0.24
6922 H 17.889926913235698 26.316630063965817 123.26190873962348 H 0.0 **** 0.06
6923 H 18.561565378448847 24.67002427450251 123.18567207613637 H 0.0 **** 0.06
6924 H 18.787495106176195 25.789127929425348 121.81837221738299 H 0.0 **** 0.06
6925 H 17.175362019907453 25.114885101410266 122.15948729429991 H 0.0 **** 0.06
6926 C 99.09063910159404 48.80708381831158 41.13547449279406 C 0.0 **** -0.24
6927 H 99.0548672003705 47.810916961470184 41.57849228868906 H 0.0 **** 0.06
6928 H 98.22362859430223 48.9485846725031 40.49032800782945 H 0.0 **** 0.06
6929 H 100.00293785660011 48.90978419109456 40.54760006758059 H 0.0 **** 0.06
6930 H 99.0808944864425 49.55661933870101 41.92690690422478 H 0.0 **** 0.06
6931 C 85.14829327384246 105.50279079210034 78.72436738899476 C 0.0 **** -0.24
6932 H 84.16964622248305 105.45197669106463 78.2457395026955 H 0.0 **** 0.06
6933 H 85.21618789299744 106.41668656755822 79.31561911930824 H 0.0 **** 0.06
6934 H 85.92625777627639 105.50394476953926 77.96115012738359 H 0.0 **** 0.06
6935 H 85.2786558153109 104.63822202381783 79.37487806134217 H 0.0 **** 0.06
6936 C 19.037422530916487 102.44815855298691 7.542525417794053 C 0.0 **** -0.24
6937 H 18.486450385686172 102.93639795998163 8.34632370115824 H 0.0 **** 0.06
6938 H 19.292459701993717 103.18444845074372 6.779674194517014 H 0.0 **** 0.06
6939 H 18.418627099913458 101.66698918055464 7.101349358418105 H 0.0 **** 0.06
6940 H 19.950020855226427 102.00767565211439 7.943175865095384 H 0.0 **** 0.06
6941 C 23.414105492497058 11.718466492497846 41.29977098288026 C 0.0 **** -0.24
6942 H 24.161283779431876 12.35831228278494 40.831378387003895 H 0.0 **** 0.06
6943 H 22.734167078332234 12.32944792857964 41.89495098815706 H 0.0 **** 0.06
6944 H 23.910062294777738 10.993222276638786 41.94566063256639 H 0.0 **** 0.06
6945 H 22.850154169432322 11.193110084138624 40.52918663159858 H 0.0 **** 0.06
6946 C 34.741930573339296 20.83476014870203 84.81891171205535 C 0.0 **** -0.24
6947 H 33.80935868280062 21.398879146958848 84.80827553969021 H 0.0 **** 0.06
6948 H 34.557815060101525 19.835654038669816 85.2124229630125 H 0.0 **** 0.06
6949 H 35.46821781424603 21.346270720804 85.45043326950298 H 0.0 **** 0.06
6950 H 35.13201509507117 20.760221779348313 83.80311503807138 H 0.0 **** 0.06
6951 C 30.605517156576127 52.324510773918874 72.87178188145586 C 0.0 **** -0.24
6952 H 29.85094587389284 51.748622291385715 73.40895077584844 H 0.0 **** 0.06
6953 H 30.188118616958604 52.67824574600783 71.92938138181202 H 0.0 **** 0.06
6954 H 31.470573778251207 51.69161164654172 72.67272042168517 H 0.0 **** 0.06
6955 H 30.910403881079446 53.17746581832341 73.47841892751737 H 0.0 **** 0.06
6956 C 42.69392410788319 35.69315208227363 41.4006296607854 C 0.0 **** -0.24
6957 H 42.824887265095455 36.62404646891474 41.95317382072045 H 0.0 **** 0.06
6958 H 42.95984123938848 34.85097856891548 42.04061297078752 H 0.0 **** 0.06
6959 H 43.33838075123363 35.698947326245275 40.52148532388085 H 0.0 **** 0.06
6960 H 41.6544528674749 35.59923346185269 41.0887170765981 H 0.0 **** 0.06
6961 C 115.64368241801687 57.411393138864696 50.984441780824966 C 0.0 **** -0.24
6962 H 116.57084000672715 56.99645721333114 50.589903245727896 H 0.0 **** 0.06
6963 H 115.81154648789854 58.44266311514454 51.29701123947626 H 0.0 **** 0.06
6964 H 115.31535856503916 56.820524969311876 51.8394552039494 H 0.0 **** 0.06
6965 H 114.8766970486075 57.38652691467183 50.21014930523012 H 0.0 **** 0.06
6966 C 95.34689454653413 122.85047069627461 83.46340686624669 C 0.0 **** -0.24
6967 H 96.25495831389696 122.7030576655309 84.04766218403327 H 0.0 **** 0.06
6968 H 95.6039568562843 123.27680902649274 82.49339535093776 H 0.0 **** 0.06
6969 H 94.67991233141105 123.52969574965303 83.99498921696832 H 0.0 **** 0.06
6970 H 94.84813925482538 121.8923869994623 83.31885421919918 H 0.0 **** 0.06
6971 C 108.5795683809298 87.46297403314512 99.78268169211617 C 0.0 **** -0.24
6972 H 109.6686801783244 87.4173289601886 99.76030398419118 H 0.0 **** 0.06
6973 H 108.24390470240385 88.37848006834301 99.29570808491042 H 0.0 **** 0.06
6974 H 108.23773107215871 87.45486985587439 100.81773207325651 H 0.0 **** 0.06
6975 H 108.16901710867504 86.60028836870842 99.25686150738551 H 0.0 **** 0.06
6976 C 55.421955969679715 83.63388427092997 91.61951638874967 C 0.0 **** -0.24
6977 H 55.921786606973825 82.66526905556998 91.62513816205741 H 0.0 **** 0.06
6978 H 54.57959583247995 83.60322508694 90.92814373783094 H 0.0 **** 0.06
6979 H 56.1250655405199 84.4037327101426 91.30270732746753 H 0.0 **** 0.06
6980 H 55.06050072147744 83.86127557967131 92.62238377937291 H 0.0 **** 0.06
6981 C 32.687560077209405 43.14325650347101 7.574992567626197 C 0.0 **** -0.24
6982 H 31.78321684960453 43.16433944648918 6.966512850525135 H 0.0 **** 0.06
6983 H 32.51484189168766 43.69261466250319 8.500991920807422 H 0.0 **** 0.06
6984 H 33.506002189731994 43.607927230491384 7.024688690040961 H 0.0 **** 0.06
6985 H 32.94623041806485 42.11037920630298 7.807844115808251 H 0.0 **** 0.06
6986 C 24.18547062475853 120.18893833884253 107.05543579449579 C 0.0 **** -0.24
6987 H 23.836037822331043 119.24414824254508 107.47119662723833 H 0.0 **** 0.06
6988 H 23.665427724951996 120.38701101581968 106.11820193728084 H 0.0 **** 0.06
6989 H 25.258691687751174 120.12931837918289 106.8704714841424 H 0.0 **** 0.06
6990 H 23.98220321408656 120.99461257455474 107.76129705784626 H 0.0 **** 0.06
6991 C 101.97635484359367 6.7398836653038074 106.94083756840307 C 0.0 **** -0.24
6992 H 102.32712986547025 7.352063825088635 106.10939238258533 H 0.0 **** 0.06
6993 H 100.90151977579299 6.876981268795191 107.06408363548779 H 0.0 **** 0.06
6994 H 102.48858419654727 7.0411177095766675 107.85394040047376 H 0.0 **** 0.06
6995 H 102.18804664163505 5.691189786771531 106.73377138627302 H 0.0 **** 0.06
6996 C 93.00876352319118 113.03732761435998 31.74292018973989 C 0.0 **** -0.24
6997 H 93.1720033398692 112.54224830129533 32.70058243924579 H 0.0 **** 0.06
6998 H 92.04184950091896 112.73678551823195 31.33945590970869 H 0.0 **** 0.06
6999 H 93.79817746364576 112.75216442645734 31.048369090734127 H 0.0 **** 0.06
7000 H 93.02324835956321 114.11745775814896 31.886950547760648 H 0.0 **** 0.06
7001 C 46.36165271176563 66.70516499086611 95.09661981533063 C 0.0 **** -0.24
7002 H 46.08025002531474 67.10210123584724 96.07177920229387 H 0.0 **** 0.06
7003 H 45.553353578714905 66.88154134835929 94.38547868280088 H 0.0 **** 0.06
7004 H 46.54596342863732 65.63459542125116 95.17871728835686 H 0.0 **** 0.06
7005 H 47.26635900260894 67.20393351115823 94.74938764065669 H 0.0 **** 0.06
7006 C 84.70051657285697 19.13758634776266 26.53842036446764 C 0.0 **** -0.24
7007 H 84.51959054597864 18.520683864163583 27.417285927098362 H 0.0 **** 0.06
7008 H 85.24160378720913 18.55682323175856 25.790523575616845 H 0.0 **** 0.06
7009 H 85.29309812450316 20.008458951447075 26.820356121685904 H 0.0 **** 0.06
7010 H 83.74746223768187 19.46702802881161 26.122891309567564 H 0.0 **** 0.06
7011 C 14.501617682342417 23.217646904157476 72.80857865232821 C 0.0 **** -0.24
7012 H 15.382328785021059 23.76562239205785 72.47239333025414 H 0.0 **** 0.06
7013 H 13.605872566142246 23.685802618568715 72.39891575679411 H 0.0 **** 0.06
7014 H 14.456139301074803 23.235492265593024 73.89701923989912 H 0.0 **** 0.06
7015 H 14.563091440542706 22.185732841174627 72.46379028436326 H 0.0 **** 0.06
7016 C 108.2790353310211 10.06385901290469 27.036302690699983 C 0.0 **** -0.24
7017 H 107.31234291354502 10.411746196814924 26.672291729176322 H 0.0 **** 0.06
7018 H 109.02713989378694 10.840727773430835 26.878568112423352 H 0.0 **** 0.06
7019 H 108.56831265688962 9.163434520459226 26.493392819830717 H 0.0 **** 0.06
7020 H 108.20641061982823 9.83834228268261 28.10003599331526 H 0.0 **** 0.06
7021 C 8.775117480357608 53.26169499369976 15.573581050140461 C 0.0 **** -0.24
7022 H 9.8588147695678 53.31510478058317 15.470129229629435 H 0.0 **** 0.06
7023 H 8.43246132739364 52.26300158193092 15.300958615243758 H 0.0 **** 0.06
7024 H 8.310876011852656 53.997475866269355 14.916510960965155 H 0.0 **** 0.06
7025 H 8.49773704345452 53.471243217415264 16.607538225060296 H 0.0 **** 0.06
7026 C 56.55549294727848 13.768283482357731 31.98830140363782 C 0.0 **** -0.24
7027 H 56.17288063731036 13.921300720146633 32.99737189095083 H 0.0 **** 0.06
7028 H 55.89431336199442 14.256818858348993 31.271718181263708 H 0.0 **** 0.06
7029 H 56.59893711038927 12.7006908913865 31.773833815084032 H 0.0 **** 0.06
7030 H 57.55545612086786 14.196202238323053 31.911431759059383 H 0.0 **** 0.06
7031 C 61.69760647800592 23.747034083290572 18.74695231414112 C 0.0 **** -0.24
7032 H 62.31979496404958 22.96223953482592 18.31782685278599 H 0.0 **** 0.06
7033 H 62.278744750366386 24.314202610084656 19.47474413206897 H 0.0 **** 0.06
7034 H 60.83567072171766 23.297706484072528 19.239597355584156 H 0.0 **** 0.06
7035 H 61.35696698877929 24.41347132066487 17.955230270210716 H 0.0 **** 0.06
7036 C 115.71884242043822 5.484339889646748 51.24725099826193 C 0.0 **** -0.24
7037 H 116.44144397400697 4.845876484641764 50.73826256733784 H 0.0 **** 0.06
7038 H 116.14312727024387 6.4801232025698 51.37724979981337 H 0.0 **** 0.06
7039 H 115.48303485076396 5.059192413952644 52.22291442911188 H 0.0 **** 0.06
7040 H 114.80990209875662 5.551582740819626 50.65086898602277 H 0.0 **** 0.06
7041 C 70.95473760005756 46.764361922557384 66.94881725919439 C 0.0 **** -0.24
7042 H 71.39856299495627 46.44234292921766 67.89109084908023 H 0.0 **** 0.06
7043 H 70.56516813135637 45.89649944400918 66.41579839861993 H 0.0 **** 0.06
7044 H 71.71360502832454 47.25514894517181 66.33927231234361 H 0.0 **** 0.06
7045 H 70.14241358304413 47.462326395274886 67.14881709789552 H 0.0 **** 0.06
7046 C 11.146842977782882 59.21229438300196 42.24891058924567 C 0.0 **** -0.24
7047 H 11.856879214685009 58.58026131009177 42.78271248951097 H 0.0 **** 0.06
7048 H 11.501032207543844 59.374815456942486 41.230681427085585 H 0.0 **** 0.06
7049 H 11.056677783734273 60.16997191046593 42.76042465061323 H 0.0 **** 0.06
7050 H 10.173521389860255 58.721829530438924 42.22141418570169 H 0.0 **** 0.06
7051 C 122.81157169418158 65.62241236884383 1.5256123592507347 C 0.0 **** -0.24
7052 H 122.81195998268458 64.92158393262811 0.6904284927025763 H 0.0 **** 0.06
7053 H 122.1082812990671 66.43014719158558 1.3206737482144337 H 0.0 **** 0.06
7054 H 123.81237566526272 66.03541944231263 1.6521361933160463 H 0.0 **** 0.06
7055 H 122.51454929366102 65.10303811434214 2.436058798706126 H 0.0 **** 0.06
7056 C 4.81070908796255 40.86146983501635 104.0507485831772 C 0.0 **** -0.24
7057 H 5.563185547275907 41.620956187030316 104.262080892257 H 0.0 **** 0.06
7058 H 5.304353003653887 39.91637426444291 103.82315731481661 H 0.0 **** 0.06
7059 H 4.210052499667597 41.17377121691902 103.19590107072929 H 0.0 **** 0.06
7060 H 4.167440469675455 40.73556674844477 104.92110744860108 H 0.0 **** 0.06
7061 C 44.3470141934651 102.91331803782697 3.1972483399762694 C 0.0 **** -0.24
7062 H 44.68417052215585 101.89161358824185 3.0173193742189284 H 0.0 **** 0.06
7063 H 43.95101424575131 102.99101645117673 4.209617188668432 H 0.0 **** 0.06
7064 H 43.566660713089334 103.16854181228268 2.4804031893879994 H 0.0 **** 0.06
7065 H 45.18675808758246 103.59843489958723 3.0811372657197325 H 0.0 **** 0.06
7066 C 45.245159808617174 80.86232489157993 8.88849767215848 C 0.0 **** -0.24
7067 H 45.22437043355329 81.25988962139569 9.902591715543224 H 0.0 **** 0.06
7068 H 46.08224966084354 80.1727536064169 8.785659647083406 H 0.0 **** 0.06
7069 H 45.36028963864507 81.6831186915177 8.180252381111274 H 0.0 **** 0.06
7070 H 44.31217651416224 80.33542803034749 8.685609431865942 H 0.0 **** 0.06
7071 C 27.00255017920631 7.261964574734492 119.26262758788664 C 0.0 **** -0.24
7072 H 28.011729320767245 6.875214823898375 119.11529162968532 H 0.0 **** 0.06
7073 H 26.643233099085222 6.972914715359309 120.2495414870304 H 0.0 **** 0.06
7074 H 26.34142434018881 6.851164658060895 118.49886007185421 H 0.0 **** 0.06
7075 H 27.016263467236456 8.349554929378996 119.18416784049202 H 0.0 **** 0.06
7076 C 62.1307336269773 41.77062199388375 52.37994129780492 C 0.0 **** -0.24
7077 H 63.18516369437083 41.50144872545686 52.44557450180713 H 0.0 **** 0.06
7078 H 61.785836413454206 41.64046771484327 51.35359654781132 H 0.0 **** 0.06
7079 H 62.00284540736794 42.8114206644495 52.67680560783589 H 0.0 **** 0.06
7080 H 61.549973140302825 41.12993096854332 53.04300761265523 H 0.0 **** 0.06
7081 C 109.45630750386763 47.155058866923184 24.602836612278935 C 0.0 **** -0.24
7082 H 109.216515748923 46.10925917848245 24.795101107741374 H 0.0 **** 0.06
7083 H 110.51842577097216 47.32313271323915 24.785868766175582 H 0.0 **** 0.06
7084 H 108.86892599177338 47.79096028864415 25.26452913989411 H 0.0 **** 0.06
7085 H 109.22418478994271 47.397061543714486 23.5659053541292 H 0.0 **** 0.06
7086 C 84.11787045022908 53.09044982027949 85.44058413516501 C 0.0 **** -0.24
7087 H 83.96216950524362 53.77562995766597 84.60808246497118 H 0.0 **** 0.06
7088 H 85.03649828242845 52.5258138576001 85.28055647130202 H 0.0 **** 0.06
7089 H 83.27515837814562 52.40173704239227 85.50697557133418 H 0.0 **** 0.06
7090 H 84.19691396212832 53.657268645099265 86.36862685360188 H 0.0 **** 0.06
7091 C 70.81140861566689 79.95456203355971 117.7181772565459 C 0.0 **** -0.24
7092 H 70.50038902570952 80.93307977154586 117.3519443090807 H 0.0 **** 0.06
7093 H 71.65329425865058 80.07315677348561 118.40154659408411 H 0.0 **** 0.06
7094 H 71.11168959151753 79.330790923656 116.87637108287845 H 0.0 **** 0.06
7095 H 69.98134365896097 79.4825460669642 118.24257761151955 H 0.0 **** 0.06
7096 C 44.67028791583556 27.60038945073873 7.431083938454975 C 0.0 **** -0.24
7097 H 44.52467566221202 28.331176072162663 8.225915765958192 H 0.0 **** 0.06
7098 H 45.39558164193846 27.984175879337442 6.713887539746906 H 0.0 **** 0.06
7099 H 43.72097462412961 27.418740423830997 6.92631403088312 H 0.0 **** 0.06
7100 H 45.03881840939539 26.66759394376419 7.859096296850339 H 0.0 **** 0.06
7101 C 70.72812006282834 83.1238656351864 89.93428277020169 C 0.0 **** -0.24
7102 H 70.04311991587088 82.86353537772436 90.74206785205274 H 0.0 **** 0.06
7103 H 70.68547782415158 84.19857810649086 89.75470408925052 H 0.0 **** 0.06
7104 H 70.43953966831727 82.59100712667306 89.02858147220252 H 0.0 **** 0.06
7105 H 71.74301619421195 82.8421375625303 90.21382670580729 H 0.0 **** 0.06
7106 C 112.68610512508022 68.54676711182555 91.32782757646976 C 0.0 **** -0.24
7107 H 112.38768409564976 67.76321456541694 92.0259702031309 H 0.0 **** 0.06
7108 H 111.81204057436847 69.13398274087001 91.04661117924542 H 0.0 **** 0.06
7109 H 113.1215874489945 68.09255769974348 90.43803510626188 H 0.0 **** 0.06
7110 H 113.42202057041924 69.19513587704154 91.80244748884877 H 0.0 **** 0.06
7111 C 42.53004847862033 69.78026908830338 120.32403023827223 C 0.0 **** -0.24
7112 H 41.56421647413816 69.47651683685325 119.92062002314086 H 0.0 **** 0.06
7113 H 42.44243750645716 70.77360759627675 120.76496069934421 H 0.0 **** 0.06
7114 H 43.2679428455557 69.80097911531664 119.52229668953305 H 0.0 **** 0.06
7115 H 42.84351822839072 69.06915076873491 121.08819000387864 H 0.0 **** 0.06
7116 C 64.99571739178137 86.18059575835116 108.59373230992247 C 0.0 **** -0.24
7117 H 64.68756657383713 85.82720234630824 109.57824078135434 H 0.0 **** 0.06
7118 H 64.2723187731045 85.85321617807676 107.84735792211785 H 0.0 **** 0.06
7119 H 65.97674840317849 85.77104330684358 108.35273509354994 H 0.0 **** 0.06
7120 H 65.04736965371227 87.26886699981446 108.59846497458551 H 0.0 **** 0.06
7121 C 95.17043852958022 97.97740013442294 28.248994495032775 C 0.0 **** -0.24
7122 H 95.15915075437533 97.01382615541468 27.739811357355393 H 0.0 **** 0.06
7123 H 95.76074588480424 97.89884954672073 29.161868928703257 H 0.0 **** 0.06
7124 H 94.14973070726995 98.26782303512394 28.498906112251632 H 0.0 **** 0.06
7125 H 95.61086631805455 98.72900323969424 27.594207646506902 H 0.0 **** 0.06
7126 C 60.77360614277792 82.63305525623127 75.37111117722698 C 0.0 **** -0.24
7127 H 61.643019297538615 82.3795020838943 75.9789115901467 H 0.0 **** 0.06
7128 H 60.04854597769766 81.81963237712094 75.41845845484713 H 0.0 **** 0.06
7129 H 61.085364028072874 82.78358769170677 74.33760805317864 H 0.0 **** 0.06
7130 H 60.31982844941359 83.54737911502713 75.75148245889883 H 0.0 **** 0.06
7131 C 47.70377401079378 111.21606088408419 120.38632058180944 C 0.0 **** -0.24
7132 H 48.20407762258151 110.25687660845364 120.51360154907265 H 0.0 **** 0.06
7133 H 47.322237899457605 111.55850861001727 121.34881396800908 H 0.0 **** 0.06
7134 H 46.876207545949 111.10337161615905 119.685332259754 H 0.0 **** 0.06
7135 H 48.413401301316185 111.9461398411143 119.99556286258274 H 0.0 **** 0.06
7136 C 43.04973382436427 82.36117387852141 53.91752437311939 C 0.0 **** -0.24
7137 H 43.222948507747645 82.70495424471852 52.89801301322406 H 0.0 **** 0.06
7138 H 43.91416286503903 81.79266047574004 54.26083714978502 H 0.0 **** 0.06
7139 H 42.163668260049974 81.72522638532428 53.940468088652324 H 0.0 **** 0.06
7140 H 42.89646987913753 83.22012227359909 54.57038154946021 H 0.0 **** 0.06
7141 C 111.35912551929547 24.888272023562564 67.4925556835056 C 0.0 **** -0.24
7142 H 110.56280239212609 25.617756727369624 67.33790652150333 H 0.0 **** 0.06
7143 H 111.6439448726654 24.880790772590274 68.54455932536638 H 0.0 **** 0.06
7144 H 112.22121975927672 25.157479629363365 66.88312772328334 H 0.0 **** 0.06
7145 H 111.00456574649107 23.898523459730512 67.20430254618367 H 0.0 **** 0.06
7146 C 98.32288113521189 0.49458960249560846 59.34329054161523 C 0.0 **** -0.24
7147 H 97.58936370432801 0.39271654949311596 58.54393909922348 H 0.0 **** 0.06
7148 H 97.84201967497013 0.30888429180109256 60.30310221014523 H 0.0 **** 0.06
7149 H 98.73400823295377 1.5040558940530104 59.331289393185244 H 0.0 **** 0.06
7150 H 99.12624614377737 -0.225930928083244 59.19306576995953 H 0.0 **** 0.06
7151 C 124.10326595660413 39.31112059423123 122.89586533602576 C 0.0 **** -0.24
7152 H 125.17109086477858 39.49242479011173 122.76983553999668 H 0.0 **** 0.06
7153 H 123.6977600228098 40.021276268541214 123.61623506108576 H 0.0 **** 0.06
7154 H 123.94799733605818 38.29545402906365 123.25967543462731 H 0.0 **** 0.06
7155 H 123.59844272089653 39.43595665766179 121.93851790539209 H 0.0 **** 0.06
7156 C 96.23158536792033 73.53883265360264 36.017156315190825 C 0.0 **** -0.24
7157 H 97.16684618726651 73.01977116283683 35.80472247126632 H 0.0 **** 0.06
7158 H 96.44274845678396 74.45995177459622 36.56079539422298 H 0.0 **** 0.06
7159 H 95.59001993109851 72.89891846090023 36.62142465233252 H 0.0 **** 0.06
7160 H 95.72901157786481 73.77722826263062 35.079563734621345 H 0.0 **** 0.06
7161 C 17.328630215054773 64.40007234415947 94.59433581496603 C 0.0 **** -0.24
7162 H 17.72015804596313 64.44355976000952 95.61030651863027 H 0.0 **** 0.06
7163 H 17.248378399756405 65.41145042855305 94.19362292544236 H 0.0 **** 0.06
7164 H 16.34365299508096 63.933296210578476 94.60401192298932 H 0.0 **** 0.06
7165 H 18.00266624263631 63.813907706639895 93.96983029172063 H 0.0 **** 0.06
7166 C 108.74156540001466 9.945277189670321 15.56719204785081 C 0.0 **** -0.24
7167 H 107.72111200022506 9.87002562505063 15.942242369436485 H 0.0 **** 0.06
7168 H 108.76691735986601 10.632797769270667 14.720671796772422 H 0.0 **** 0.06
7169 H 109.08463606489143 8.961287109616876 15.246636623915748 H 0.0 **** 0.06
7170 H 109.3924574438547 10.317131912694663 16.357919099453795 H 0.0 **** 0.06
7171 C 98.43252222064476 119.86019546944502 94.21980786101989 C 0.0 **** -0.24
7172 H 98.62232894081758 119.76071627654227 95.28816780225452 H 0.0 **** 0.06
7173 H 99.28876346608129 119.47958387572189 93.6621489155969 H 0.0 **** 0.06
7174 H 98.27732383578977 120.91028107495745 93.97499913124722 H 0.0 **** 0.06
7175 H 97.54277169778402 119.28931068777464 93.95392764641537 H 0.0 **** 0.06
7176 C 51.57949580577683 0.8083023700866061 97.29349964837823 C 0.0 **** -0.24
7177 H 52.227196749686044 1.3616189557939258 97.97224028891935 H 0.0 **** 0.06
7178 H 52.16257545551913 0.04631256797227934 96.77546546311439 H 0.0 **** 0.06
7179 H 51.14755395201183 1.4928051500585653 96.56390602868325 H 0.0 **** 0.06
7180 H 50.7800370215661 0.3305949645117128 97.86134301083146 H 0.0 **** 0.06
7181 C 40.06936999336791 5.3973146518984265 33.63237769773694 C 0.0 **** -0.24
7182 H 39.614747395268886 6.268915243730561 34.10340255453241 H 0.0 **** 0.06
7183 H 39.43102423855818 4.527269516375142 33.786873260395495 H 0.0 **** 0.06
7184 H 41.0478003616833 5.213790878858703 34.0746340323017 H 0.0 **** 0.06
7185 H 40.18121547780668 5.580532444067686 32.56312113159915 H 0.0 **** 0.06
7186 C 8.662252718402613 38.09333337444059 45.243856071200526 C 0.0 **** -0.24
7187 H 7.5845048640662185 38.11733407132999 45.402494629346435 H 0.0 **** 0.06
7188 H 8.870370633329514 37.84722438274082 44.20272976283502 H 0.0 **** 0.06
7189 H 9.10827633397298 37.33992482997763 45.89221102294255 H 0.0 **** 0.06
7190 H 9.08520939563192 39.070105350406436 45.477936923425226 H 0.0 **** 0.06
7191 C 101.61486997167458 115.88025011196942 70.60270482485616 C 0.0 **** -0.24
7192 H 100.7814503647796 116.56247161468664 70.76896745833163 H 0.0 **** 0.06
7193 H 101.351149557177 114.88838023131848 70.96993689843696 H 0.0 **** 0.06
7194 H 102.49381684704682 116.24391314187582 71.13606339149881 H 0.0 **** 0.06
7195 H 101.83373821550154 115.82741917799436 69.53547318374154 H 0.0 **** 0.06
7196 C 60.72350500767104 115.34170618373608 99.2555232393315 C 0.0 **** -0.24
7197 H 59.680502092270785 115.02556355082444 99.26925113584903 H 0.0 **** 0.06
7198 H 61.32461349351735 114.58851207728583 98.74436765598048 H 0.0 **** 0.06
7199 H 61.08095535992325 115.45852308667202 100.27901178794745 H 0.0 **** 0.06
7200 H 60.808720238492384 116.2924868329485 98.73007943879365 H 0.0 **** 0.06
7201 C 114.6751713784578 81.01403505501331 91.99165787999365 C 0.0 **** -0.24
7202 H 114.0275897697973 81.0829899708499 91.11735357975542 H 0.0 **** 0.06
7203 H 114.56183603946769 81.91147543705279 92.59972083921119 H 0.0 **** 0.06
7204 H 115.712920480485 80.92262204716538 91.66887739195258 H 0.0 **** 0.06
7205 H 114.39927882994573 80.13784925326352 92.57938784418221 H 0.0 **** 0.06
7206 C 87.41752500856465 56.87837511260136 67.05675696968892 C 0.0 **** -0.24
7207 H 87.56061554655238 57.79339382089972 66.4817729862201 H 0.0 **** 0.06
7208 H 86.52909267913716 56.977517721837216 67.68070525673747 H 0.0 **** 0.06
7209 H 88.28838700184572 56.70689989870698 67.68860290774272 H 0.0 **** 0.06
7210 H 87.29140309990086 56.03715599612241 66.37524954913866 H 0.0 **** 0.06
7211 C 78.52929407640201 109.49407263555821 26.235819926246677 C 0.0 **** -0.24
7212 H 79.49148294929805 109.16902122277878 26.6304853694146 H 0.0 **** 0.06
7213 H 78.51095725822245 110.58254305455478 26.175275307032393 H 0.0 **** 0.06
7214 H 77.73138022829548 109.15257917632994 26.895481531426412 H 0.0 **** 0.06
7215 H 78.38380753844442 109.07264313915186 25.240792492496666 H 0.0 **** 0.06
7216 C 13.69354914430923 68.04110509321217 25.68342824200375 C 0.0 **** -0.24
7217 H 12.778710173677709 67.51421239096777 25.954270325951143 H 0.0 **** 0.06
7218 H 13.73311446428714 68.16837766685273 24.60108400603793 H 0.0 **** 0.06
7219 H 14.55695293429838 67.46360830719473 26.013260087269522 H 0.0 **** 0.06
7220 H 13.705230763953622 69.01911532449114 26.164690376866858 H 0.0 **** 0.06
7221 C 3.4311555536205844 27.963185579797695 88.17807302593096 C 0.0 **** -0.24
7222 H 3.746055572746428 28.986529093928752 87.96952846791524 H 0.0 **** 0.06
7223 H 2.8534422038898413 27.582489227234817 87.3358508014729 H 0.0 **** 0.06
7224 H 2.815845042922547 27.948811277623626 89.07703242417126 H 0.0 **** 0.06
7225 H 4.31016654779603 27.336983617849263 88.32891881498342 H 0.0 **** 0.06
7226 C 121.7502693320211 66.92831792263766 58.74494414836178 C 0.0 **** -0.24
7227 H 122.27142883932115 67.31528107838821 57.86837579516174 H 0.0 **** 0.06
7228 H 120.70243747254652 67.22845443324124 58.70645711067989 H 0.0 **** 0.06
7229 H 122.21144795838742 67.33009059023576 59.64733359971356 H 0.0 **** 0.06
7230 H 121.81696665038993 65.84086034690543 58.755050720711765 H 0.0 **** 0.06
7231 C 72.20237710242895 85.40128546054439 85.2219502388555 C 0.0 **** -0.24
7232 H 71.49833805514976 84.8600775721194 84.59030736599286 H 0.0 **** 0.06
7233 H 71.7056222502457 86.26945096679702 85.65763945789094 H 0.0 **** 0.06
7234 H 73.04899726032657 85.73179089763966 84.620682295032 H 0.0 **** 0.06
7235 H 72.55517500759541 84.74585531771089 86.01776657082634 H 0.0 **** 0.06
7236 C 103.42009708876753 75.108591990935 101.31508699256602 C 0.0 **** -0.24
7237 H 104.02607549082528 75.91058891639895 100.89473623272805 H 0.0 **** 0.06
7238 H 102.52679588131099 74.97087709615302 100.70583641232608 H 0.0 **** 0.06
7239 H 103.12846935270224 75.36899455633 102.33317762814163 H 0.0 **** 0.06
7240 H 103.99769108679828 74.18459759897586 101.32742447942157 H 0.0 **** 0.06
7241 C 22.188027670828177 124.1897266045256 14.597071279953184 C 0.0 **** -0.24
7242 H 22.735586157508358 124.60407396938194 13.74950018126907 H 0.0 **** 0.06
7243 H 22.349022586641112 124.81555902001045 15.474037672865563 H 0.0 **** 0.06
7244 H 22.54406645104612 123.1797523076906 14.799241978569853 H 0.0 **** 0.06
7245 H 21.124203432732024 124.15926615160043 14.36122203244446 H 0.0 **** 0.06
7246 C 79.1643508449948 35.234496727578176 85.60582850869457 C 0.0 **** -0.24
7247 H 78.71409497941048 34.63933841844954 86.40009290636911 H 0.0 **** 0.06
7248 H 79.44825118980916 36.210328087790344 86.00056954781195 H 0.0 **** 0.06
7249 H 78.44545341753928 35.36476537169182 84.7970014135067 H 0.0 **** 0.06
7250 H 80.04983989385858 34.72467555513322 85.22648010232732 H 0.0 **** 0.06
7251 C 64.79630000515198 100.69818719780477 42.529624067727326 C 0.0 **** -0.24
7252 H 63.9330292407939 100.27857856916266 42.011815256846276 H 0.0 **** 0.06
7253 H 64.56404347019208 101.71045211719004 42.86053847262707 H 0.0 **** 0.06
7254 H 65.64976225192646 100.72365652681229 41.85165781126723 H 0.0 **** 0.06
7255 H 65.03638434338586 100.07863517445662 43.394278658959706 H 0.0 **** 0.06
7256 C 86.6605520279179 31.397253198867617 39.93406909781108 C 0.0 **** -0.24
7257 H 87.13366696601128 30.862495342758308 39.11054071797259 H 0.0 **** 0.06
7258 H 86.38823922253312 30.689851613017936 40.71754242567497 H 0.0 **** 0.06
7259 H 85.76394852630926 31.90133925423808 39.57279892333744 H 0.0 **** 0.06
7260 H 87.35507708865424 32.13415866766863 40.33547897875795 H 0.0 **** 0.06
7261 C 97.5435947397232 83.08875004675261 110.30939170251742 C 0.0 **** -0.24
7262 H 96.868330777898 83.1305488459892 111.16405546880088 H 0.0 **** 0.06
7263 H 98.525153501299 83.45937464809525 110.60351832174081 H 0.0 **** 0.06
7264 H 97.14837437414124 83.70552666787331 109.50286884782906 H 0.0 **** 0.06
7265 H 97.63170149623167 82.05621483007238 109.96757878056326 H 0.0 **** 0.06
7266 C 108.33658469112464 117.96624924536879 52.391010006789344 C 0.0 **** -0.24
7267 H 107.83396345201282 117.16946351484022 52.9402496206004 H 0.0 **** 0.06
7268 H 108.69466857965108 118.72075491764659 53.09164531985064 H 0.0 **** 0.06
7269 H 107.6352980572197 118.42345972909874 51.691745085882744 H 0.0 **** 0.06
7270 H 109.1799615707368 117.55121254201896 51.84037345891787 H 0.0 **** 0.06
7271 C 40.46812652746644 60.909196901982 118.72265078631821 C 0.0 **** -0.24
7272 H 40.74127370071602 60.4368252208842 119.666516958969 H 0.0 **** 0.06
7273 H 40.86578606524114 61.92335351037616 118.69532067970528 H 0.0 **** 0.06
7274 H 39.38149343923004 60.94207899512787 118.6345367252051 H 0.0 **** 0.06
7275 H 40.88262219265454 60.33371303251539 117.89497853071873 H 0.0 **** 0.06
7276 C 82.77829944904491 3.0826308912633866 27.00383947964444 C 0.0 **** -0.24
7277 H 82.59305991634952 3.5729103900849104 26.048545812133234 H 0.0 **** 0.06
7278 H 82.37501163636139 3.694203718745804 27.810674840420816 H 0.0 **** 0.06
7279 H 83.85185059655626 2.955417194704454 27.145297418618995 H 0.0 **** 0.06
7280 H 82.29364669786995 2.1058243837592237 27.010436244473958 H 0.0 **** 0.06
7281 C 20.255421431857428 65.56200179697446 109.43450511051748 C 0.0 **** -0.24
7282 H 19.511827025521114 65.35370794235824 108.66455005194689 H 0.0 **** 0.06
7283 H 20.270192071599894 64.74509657403685 110.15545264669782 H 0.0 **** 0.06
7284 H 19.999497640065982 66.49177138129215 109.94303658953919 H 0.0 **** 0.06
7285 H 21.238071988581225 65.65907689263207 108.97300753625302 H 0.0 **** 0.06
7286 C 104.50202923528354 114.067586002412 72.6650511506266 C 0.0 **** -0.24
7287 H 105.5798773827508 114.12176470505597 72.51435042493537 H 0.0 **** 0.06
7288 H 104.19214178021684 113.02309198220264 72.70275699920782 H 0.0 **** 0.06
7289 H 103.99373551974736 114.56724702403207 71.83992442715595 H 0.0 **** 0.06
7290 H 104.24086654990123 114.5589631625078 73.60268235920026 H 0.0 **** 0.06
7291 C 26.437832583320883 17.04395525446411 64.90377330330324 C 0.0 **** -0.24
7292 H 26.019917924074967 16.16275267560182 64.4164478582648 H 0.0 **** 0.06
7293 H 26.20891793692234 17.929353971123955 64.31045389681395 H 0.0 **** 0.06
7294 H 27.518116501781513 16.932235381906658 64.99037568927793 H 0.0 **** 0.06
7295 H 26.0019510417791 17.14955482585091 65.89717690383787 H 0.0 **** 0.06
7296 C 14.339233909322047 69.86420715692836 20.169805112863834 C 0.0 **** -0.24
7297 H 14.80545518673199 69.00534459577088 19.685546293351702 H 0.0 **** 0.06
7298 H 15.112938876919543 70.53993629094171 20.53341538801522 H 0.0 **** 0.06
7299 H 13.730750735912977 69.5226132807849 21.006943416264612 H 0.0 **** 0.06
7300 H 13.70757318070497 70.3867635341251 19.450444743708232 H 0.0 **** 0.06
7301 C 67.97172106997165 29.378487247674002 22.72299309630003 C 0.0 **** -0.24
7302 H 67.7035517374502 28.58695684098035 23.422666251959498 H 0.0 **** 0.06
7303 H 68.98938968607594 29.712832508776785 22.925217114357906 H 0.0 **** 0.06
7304 H 67.28363858341477 30.215950947406782 22.8409497973704 H 0.0 **** 0.06
7305 H 67.90931609843051 28.998362159504154 21.70313562332413 H 0.0 **** 0.06
7306 C 52.99887136473309 40.05683972091238 62.813319515137266 C 0.0 **** -0.24
7307 H 53.20751867066066 39.373130661556154 63.63544533612918 H 0.0 **** 0.06
7308 H 53.91051152235117 40.59403341108037 62.5481724439685 H 0.0 **** 0.06
7309 H 52.23225595193777 40.769111611157676 63.11799517411305 H 0.0 **** 0.06
7310 H 52.646707772357956 39.490664154073166 61.9504204503782 H 0.0 **** 0.06
7311 C 96.3591314695004 47.14866416796076 107.04658547547018 C 0.0 **** -0.24
7312 H 96.94051419807884 46.45083460214974 107.6504603046601 H 0.0 **** 0.06
7313 H 96.88887891196948 47.35253847236217 106.11633519015703 H 0.0 **** 0.06
7314 H 96.22273707706404 48.0785268572118 107.59922793303727 H 0.0 **** 0.06
7315 H 95.3855827692544 46.71191326946933 106.82430349189886 H 0.0 **** 0.06
7316 C 71.69000313422157 50.961276579596785 27.650922404703124 C 0.0 **** -0.24
7317 H 70.77826838780408 51.47058586327003 27.337527200355396 H 0.0 **** 0.06
7318 H 72.08017236961524 50.37203421880591 26.820238837633838 H 0.0 **** 0.06
7319 H 71.46723858872167 50.30364195170702 28.491420104994745 H 0.0 **** 0.06
7320 H 72.43267124118273 51.69944369018236 27.953132744373193 H 0.0 **** 0.06
7321 C 1.0508356113421513 115.35778185702515 120.91861681999359 C 0.0 **** -0.24
7322 H 0.6705418003916748 114.71682102584111 120.12294253902304 H 0.0 **** 0.06
7323 H 0.21495617392307054 115.76286723808886 121.48976404726689 H 0.0 **** 0.06
7324 H 1.6237667527226165 116.17674568287646 120.48199003855395 H 0.0 **** 0.06
7325 H 1.694446798393031 114.77587516720831 121.57765695693755 H 0.0 **** 0.06
7326 C 117.48099501080628 71.52491194850495 58.46948455276552 C 0.0 **** -0.24
7327 H 116.78420255720711 71.0798439923927 59.17858850045721 H 0.0 **** 0.06
7328 H 118.06367889741901 70.7381852099501 57.98993658694167 H 0.0 **** 0.06
7329 H 118.15110696590584 72.2048943132337 58.996256516629956 H 0.0 **** 0.06
7330 H 116.92509763908261 72.07791591565547 57.712402373298744 H 0.0 **** 0.06
7331 C 110.26103331455313 19.749996657858 2.1525674077868757 C 0.0 **** -0.24
7332 H 110.2628116056266 20.759145556234245 2.566584480379049 H 0.0 **** 0.06
7333 H 109.24937663134178 19.484554165954496 1.8471108672438277 H 0.0 **** 0.06
7334 H 110.60871142666146 19.047050487640803 2.9093040169692017 H 0.0 **** 0.06
7335 H 110.92426767696674 19.711810551734743 1.287822495379146 H 0.0 **** 0.06
7336 C 102.50334256943802 67.90343067783562 56.4326187080368 C 0.0 **** -0.24
7337 H 102.92157268053347 67.34437453894219 57.26988839881054 H 0.0 **** 0.06
7338 H 102.60165413053824 68.97190876898554 56.62551021904869 H 0.0 **** 0.06
7339 H 101.45055630968608 67.64877640753815 56.315802895747765 H 0.0 **** 0.06
7340 H 103.04292224646753 67.64723660207824 55.52019164836615 H 0.0 **** 0.06
7341 C 35.38989790213574 99.12156499479121 34.43362962919106 C 0.0 **** -0.24
7342 H 34.992379084406764 99.8176183902552 33.695222459169166 H 0.0 **** 0.06
7343 H 35.117023222772445 98.10235573397213 34.15649120940378 H 0.0 **** 0.06
7344 H 34.974265636881455 99.35488393325934 35.413818280592196 H 0.0 **** 0.06
7345 H 36.47567285413342 99.21053088320511 34.46790098324295 H 0.0 **** 0.06
7346 C 37.20432490394695 37.450547844743966 103.91845539649407 C 0.0 **** -0.24
7347 H 37.78731962389322 37.973706064042375 104.6761144989558 H 0.0 **** 0.06
7348 H 37.7400173711766 36.554938148803274 103.60129353802587 H 0.0 **** 0.06
7349 H 37.05208319908794 38.106486830336166 103.06043366033953 H 0.0 **** 0.06
7350 H 36.237034175178486 37.16760953048632 104.334987895271 H 0.0 **** 0.06
7351 C 97.64614404730784 39.28916293400016 61.916770024659115 C 0.0 **** -0.24
7352 H 97.57377491876784 40.08552233698474 61.17639235764385 H 0.0 **** 0.06
7353 H 97.64960347976903 38.322783912102665 61.4120747175088 H 0.0 **** 0.06
7354 H 96.79264624819042 39.34410083933351 62.59334825460817 H 0.0 **** 0.06
7355 H 98.56878834288884 39.40563632737255 62.48534997556028 H 0.0 **** 0.06
7356 C 46.0001777535129 102.21175618015513 40.99087125876817 C 0.0 **** -0.24
7357 H 44.92348649158079 102.22817630368525 40.82569273656809 H 0.0 **** 0.06
7358 H 46.45069328804246 101.43568722032518 40.37260643086053 H 0.0 **** 0.06
7359 H 46.204200871959614 102.00464703172162 42.04133833078195 H 0.0 **** 0.06
7360 H 46.4234317179796 103.18069970450443 40.72395124014271 H 0.0 **** 0.06
7361 C 9.411887118926646 111.6033263126897 70.38582760375965 C 0.0 **** -0.24
7362 H 9.55363353952978 111.80221679082162 71.44823677680779 H 0.0 **** 0.06
7363 H 10.305295403962486 111.12523559536334 69.98358808174424 H 0.0 **** 0.06
7364 H 9.232455254100412 112.54183158074905 69.86161699938623 H 0.0 **** 0.06
7365 H 8.555386379821126 110.94299790558257 70.25140080568144 H 0.0 **** 0.06
7366 C 69.15794321603938 111.2831554436497 120.30571360246262 C 0.0 **** -0.24
7367 H 69.74659686532557 112.01255765438069 119.74899013109916 H 0.0 **** 0.06
7368 H 69.26086431407805 110.3028279048328 119.8415694269797 H 0.0 **** 0.06
7369 H 68.10930012237905 111.58160429071864 120.29742554584482 H 0.0 **** 0.06
7370 H 69.51469405750765 111.23806058819025 121.33483605097027 H 0.0 **** 0.06
7371 C 95.12481043343385 56.24068395400306 95.01470327773949 C 0.0 **** -0.24
7372 H 95.27356646975933 55.25148688024589 95.44775235308106 H 0.0 **** 0.06
7373 H 94.81023917842268 56.13826987946126 93.97595835826202 H 0.0 **** 0.06
7374 H 96.05908808926222 56.800067129702626 95.05812456774585 H 0.0 **** 0.06
7375 H 94.35688049428569 56.7705436014036 95.57730616611998 H 0.0 **** 0.06
7376 C 47.82018844339288 23.896260012536096 118.88280486034776 C 0.0 **** -0.24
7377 H 47.0439990578426 24.067675191556944 118.13649351751633 H 0.0 **** 0.06
7378 H 47.373708633030674 23.893298511162335 119.87715324718309 H 0.0 **** 0.06
7379 H 48.56534135390558 24.689635609163844 118.81971729783913 H 0.0 **** 0.06
7380 H 48.29762871252069 22.93507223777054 118.6951016306985 H 0.0 **** 0.06
7381 C 44.338945916445425 60.02390317575464 8.032800821607594 C 0.0 **** -0.24
7382 H 45.21449419630801 59.437850535976594 8.309723457806086 H 0.0 **** 0.06
7383 H 43.84060444022191 59.55528673098465 7.1844117087757695 H 0.0 **** 0.06
7384 H 44.64978520835842 61.03321891171183 7.759873213282987 H 0.0 **** 0.06
7385 H 43.65212940197418 60.07121302890411 8.878007643927646 H 0.0 **** 0.06
7386 C 81.59363521904835 19.892865706596126 112.695316009522 C 0.0 **** -0.24
7387 H 82.04424810488538 20.785682753821874 112.26181346723826 H 0.0 **** 0.06
7388 H 80.74877389332894 20.179977853432803 113.3224967982305 H 0.0 **** 0.06
7389 H 82.3343360460668 19.36829313981339 113.29883784958432 H 0.0 **** 0.06
7390 H 81.24565132803636 19.237754191899413 111.8965051208065 H 0.0 **** 0.06
7391 C 28.48182087719485 43.629644942391025 102.62913676216033 C 0.0 **** -0.24
7392 H 29.09469806449826 44.43054107281668 102.21426364178564 H 0.0 **** 0.06
7393 H 29.09909056479836 42.99086389713699 103.26107080318869 H 0.0 **** 0.06
7394 H 28.058978805176167 43.0390594809861 101.81609855296955 H 0.0 **** 0.06
7395 H 27.675667487870527 44.06046533219225 103.22307633803422 H 0.0 **** 0.06
7396 C 62.75537083325159 55.939199853220686 55.310044819204634 C 0.0 **** -0.24
7397 H 61.88979082820396 55.35698502537457 54.995389756722375 H 0.0 **** 0.06
7398 H 63.55472809615776 55.26490848087818 55.61678705400341 H 0.0 **** 0.06
7399 H 62.477530267824704 56.57831833039714 56.148236268926055 H 0.0 **** 0.06
7400 H 63.09879494116484 56.55734385813878 54.47990589363528 H 0.0 **** 0.06
7401 C 69.5928424922995 11.04219735797217 42.32587972571329 C 0.0 **** -0.24
7402 H 70.26651762294807 11.265041076550286 41.49877684494107 H 0.0 **** 0.06
7403 H 68.76368905488005 11.75131167409609 42.31953204812807 H 0.0 **** 0.06
7404 H 70.13489973199785 11.124021149846065 43.267500919787445 H 0.0 **** 0.06
7405 H 69.20558233693521 10.02860494122655 42.21536380074985 H 0.0 **** 0.06
7406 C 64.66791249064264 49.24574519126753 46.9238187880089 C 0.0 **** -0.24
7407 H 64.87745581422914 48.251310678986556 47.319581816774644 H 0.0 **** 0.06
7408 H 65.44415066417938 49.5222899024331 46.20981804137196 H 0.0 **** 0.06
7409 H 64.65156085524481 49.96585794552544 47.74180102663563 H 0.0 **** 0.06
7410 H 63.699238261575914 49.24066295901076 46.4245782760283 H 0.0 **** 0.06
7411 C 16.757910235303626 38.901999236059055 41.18327793343212 C 0.0 **** -0.24
7412 H 17.804942729465637 38.69643314499655 40.96052414965175 H 0.0 **** 0.06
7413 H 16.66780742096273 39.26596016750591 42.206980846631154 H 0.0 **** 0.06
7414 H 16.176684653532817 37.98762518287947 41.06949500915829 H 0.0 **** 0.06
7415 H 16.38208775579102 39.65882759367105 40.49430475473912 H 0.0 **** 0.06
7416 C 95.35282443821372 7.502038122127168 112.79724651600233 C 0.0 **** -0.24
7417 H 94.45910718636787 8.025023817136564 113.14047275043136 H 0.0 **** 0.06
7418 H 95.5835077958876 6.688293644509418 113.48386122071241 H 0.0 **** 0.06
7419 H 96.19052622912018 8.199241190246354 112.76511647596476 H 0.0 **** 0.06
7420 H 95.17646456744474 7.098343169331674 111.80029652645369 H 0.0 **** 0.06
7421 C 66.08548371211309 6.600888935595577 123.26713570549602 C 0.0 **** -0.24
7422 H 66.65121456404258 5.787120807035848 122.81336291287354 H 0.0 **** 0.06
7423 H 66.2945137740424 6.636651475134812 124.33642761827278 H 0.0 **** 0.06
7424 H 65.01912815812918 6.433140984090755 123.11027507150172 H 0.0 **** 0.06
7425 H 66.37594022371546 7.545537606836632 122.80725896573969 H 0.0 **** 0.06
7426 C 100.65449185008481 85.08867639244876 91.61977349599994 C 0.0 **** -0.24
7427 H 100.95214898405911 84.09297645612538 91.28881934204495 H 0.0 **** 0.06
7428 H 100.460117025215 85.71646177908434 90.75019161886544 H 0.0 **** 0.06
7429 H 101.45682664480219 85.52800035736085 92.21340561612953 H 0.0 **** 0.06
7430 H 99.7522780933368 85.01571624729169 92.22656244565226 H 0.0 **** 0.06
7431 C 94.65573989164612 110.66806888244923 54.599766808210774 C 0.0 **** -0.24
7432 H 94.61335249954018 111.71075161855599 54.283095385113796 H 0.0 **** 0.06
7433 H 93.9672181871811 110.51254208653813 55.43015043547163 H 0.0 **** 0.06
7434 H 95.67041149513545 110.42659304947132 54.9181764939315 H 0.0 **** 0.06
7435 H 94.37375849450947 110.02434817350363 53.766234638577515 H 0.0 **** 0.06
7436 C 7.55150333068724 33.16074240919515 64.99829377686811 C 0.0 **** -0.24
7437 H 8.049831215286986 34.082625058207306 64.69759386727361 H 0.0 **** 0.06
7438 H 7.229808101246874 33.24507220229682 66.03607137563023 H 0.0 **** 0.06
7439 H 8.244180764544438 32.324620772452 64.89845225542527 H 0.0 **** 0.06
7440 H 6.684354558345461 32.992300885546534 64.36027721884244 H 0.0 **** 0.06
7441 C 78.6351791999929 21.997832900784644 105.14543340850456 C 0.0 **** -0.24
7442 H 79.41899558453977 21.95039318827091 104.3892911795623 H 0.0 **** 0.06
7443 H 77.8328478046025 21.309933707595263 104.88042833501505 H 0.0 **** 0.06
7444 H 78.24206731829807 23.01293763193742 105.19850999151387 H 0.0 **** 0.06
7445 H 79.04933967381743 21.717873269348075 106.11509908489181 H 0.0 **** 0.06
7446 C 65.28806801663782 31.713071209467444 57.799313776175694 C 0.0 **** -0.24
7447 H 64.3885677276459 32.153564492145506 57.37135757812534 H 0.0 **** 0.06
7448 H 65.26116797170694 30.630882033683804 57.66685339647739 H 0.0 **** 0.06
7449 H 65.33704579485013 31.94802695597906 58.8629766591596 H 0.0 **** 0.06
7450 H 66.16659824678624 32.11876852721116 57.29689555680555 H 0.0 **** 0.06
7451 C 8.69997425087206 34.881097049684826 88.20300162043674 C 0.0 **** -0.24
7452 H 8.792464517549348 35.67558715629394 87.46250940043552 H 0.0 **** 0.06
7453 H 8.866713426809326 35.29060399142399 89.19906778011153 H 0.0 **** 0.06
7454 H 9.440085050003205 34.107378411816796 87.99909189746103 H 0.0 **** 0.06
7455 H 7.700219587107114 34.44965559614701 88.14879260232689 H 0.0 **** 0.06
7456 C 77.9475853418127 19.368417531922432 111.38297632418885 C 0.0 **** -0.24
7457 H 78.22357057499093 18.364195348154908 111.70381216224554 H 0.0 **** 0.06
7458 H 77.04932487999235 19.685963674444196 111.91420828326764 H 0.0 **** 0.06
7459 H 77.7521249152459 19.365625821798716 110.30981220294656 H 0.0 **** 0.06
7460 H 78.76317813291419 20.056849847925406 111.60254410781255 H 0.0 **** 0.06
7461 C 76.13723425756825 60.08157893242412 41.56283439905411 C 0.0 **** -0.24
7462 H 75.20261862155982 59.88810628339681 41.035346283598074 H 0.0 **** 0.06
7463 H 76.2307723008127 61.15152511491053 41.75365527582383 H 0.0 **** 0.06
7464 H 76.97473406421449 59.74710788784196 40.95069316090809 H 0.0 **** 0.06
7465 H 76.13911384458623 59.5414954303009 42.50891627353354 H 0.0 **** 0.06
7466 C 57.0888883735001 70.30556651512308 15.032405167412122 C 0.0 **** -0.24
7467 H 56.010808172325966 70.16526257333967 15.113507653176782 H 0.0 **** 0.06
7468 H 57.43160668624013 69.93443919719866 14.065751423847786 H 0.0 **** 0.06
7469 H 57.58717913706593 69.75465605899038 15.830473287214204 H 0.0 **** 0.06
7470 H 57.32405665258126 71.36541868334413 15.119461846972115 H 0.0 **** 0.06
7471 C 118.8591339870315 30.87747775560237 108.59743485201992 C 0.0 **** -0.24
7472 H 117.8058708648118 30.722593890584278 108.83038434182626 H 0.0 **** 0.06
7473 H 119.13309939082538 30.273327695578985 107.73269075385357 H 0.0 **** 0.06
7474 H 119.46682228466396 30.584038793274857 109.45383735883289 H 0.0 **** 0.06
7475 H 119.03075853475846 31.930983778346956 108.373792618995 H 0.0 **** 0.06
7476 C 8.716192840338309 18.0502057462611 105.82311942457284 C 0.0 **** -0.24
7477 H 8.766513631372817 19.029901205123338 105.3476298344925 H 0.0 **** 0.06
7478 H 9.726129786325302 17.6839609840805 106.00759394399546 H 0.0 **** 0.06
7479 H 8.191125854354965 17.355531990150496 105.16740092787899 H 0.0 **** 0.06
7480 H 8.18038100584134 18.133164075351942 106.76907626222095 H 0.0 **** 0.06
7481 C 41.52780298759717 9.273135944008551 93.91956837247888 C 0.0 **** -0.24
7482 H 41.606619788166356 10.32343096241673 93.63988468695307 H 0.0 **** 0.06
7483 H 41.397323463043975 9.193911395498205 94.99837661282393 H 0.0 **** 0.06
7484 H 42.43721295368828 8.749833075173491 93.6229889274478 H 0.0 **** 0.06
7485 H 40.67085479556438 8.826299677345308 93.41490324925749 H 0.0 **** 0.06
7486 C 59.1525868146652 86.3815736644965 32.30139546196227 C 0.0 **** -0.24
7487 H 58.84975619002937 86.86193678481226 31.370452581597135 H 0.0 **** 0.06
7488 H 58.93666064068435 87.04648726670302 33.1385361747906 H 0.0 **** 0.06
7489 H 60.22089538441239 86.17081449245245 32.27034709194862 H 0.0 **** 0.06
7490 H 58.60069710950049 85.45018185146961 32.424917563800875 H 0.0 **** 0.06
7491 C 51.610233923438386 55.387099303827654 59.21412786115472 C 0.0 **** -0.24
7492 H 52.39309975457596 54.62883435023426 59.19002236407786 H 0.0 **** 0.06
7493 H 51.32805174701812 55.58453871748043 60.24783553444216 H 0.0 **** 0.06
7494 H 50.74122584560729 55.03002662796351 58.661482612049156 H 0.0 **** 0.06
7495 H 51.98004304942211 56.30476409887362 58.7563099270763 H 0.0 **** 0.06
7496 C 4.784366592939051 119.28433294853576 95.17654579185643 C 0.0 **** -0.24
7497 H 4.375600237252918 118.2883985709058 95.34896829988818 H 0.0 **** 0.06
7498 H 5.4933245751021715 119.52854373040414 95.96770594350721 H 0.0 **** 0.06
7499 H 3.9747082575802253 120.01381427241063 95.17551472978334 H 0.0 **** 0.06
7500 H 5.293190319238313 119.30521079390553 94.21234338178088 H 0.0 **** 0.06
7501 C 89.6937193601807 69.22827472162194 102.62315911908803 C 0.0 **** -0.24
7502 H 89.5957098136696 69.5677016746898 101.59249373935717 H 0.0 **** 0.06
7503 H 88.74992317059338 69.38043307075446 103.1465034414669 H 0.0 **** 0.06
7504 H 90.48034221489604 69.796181306014 103.11992898670155 H 0.0 **** 0.06
7505 H 89.9482887086827 68.1679988724226 102.63361526326645 H 0.0 **** 0.06
7506 C 12.799124443394234 19.30340785768206 84.30016947456576 C 0.0 **** -0.24
7507 H 12.583086851532133 20.37232819546253 84.30770888581043 H 0.0 **** 0.06
7508 H 12.700454574062501 18.905433242557507 85.3107921753872 H 0.0 **** 0.06
7509 H 13.815409641031184 19.14100443375841 83.9427017521439 H 0.0 **** 0.06
7510 H 12.09602437837215 18.79649725739276 83.63961771734168 H 0.0 **** 0.06
7511 C 56.54456971160431 70.6589372298426 77.68399954735403 C 0.0 **** -0.24
7512 H 55.76170421713317 70.00577196389614 77.2996606179472 H 0.0 **** 0.06
7513 H 57.212530243601094 70.08606820203492 78.32758290304577 H 0.0 **** 0.06
7514 H 56.092951555737784 71.46861390307762 78.25719884310958 H 0.0 **** 0.06
7515 H 57.11038183673469 71.07571675670846 76.85040839734853 H 0.0 **** 0.06
7516 C 42.1542522886303 79.13769629539803 117.70683509842985 C 0.0 **** -0.24
7517 H 41.68324552051002 78.62452058577878 118.5463922001737 H 0.0 **** 0.06
7518 H 41.653855199704736 78.85318321346895 116.7809399667949 H 0.0 **** 0.06
7519 H 43.205757109161574 78.85476573793923 117.65380075328181 H 0.0 **** 0.06
7520 H 42.07383452285846 80.21541093356598 117.84806836968767 H 0.0 **** 0.06
7521 C 5.683140720008428 91.31249354039863 86.55721552986455 C 0.0 **** -0.24
7522 H 6.116227933816905 90.3340990857206 86.76441940206777 H 0.0 **** 0.06
7523 H 5.918174252756675 91.60492573918927 85.5340868356036 H 0.0 **** 0.06
7524 H 6.096562957165997 92.04735385694877 87.24906606001531 H 0.0 **** 0.06
7525 H 4.601325674747347 91.26473850437333 86.68207695863424 H 0.0 **** 0.06
7526 C 98.39420137436551 17.621094105736105 123.93269547662695 C 0.0 **** -0.24
7527 H 99.34328759362006 17.904226704438457 123.47665706838552 H 0.0 **** 0.06
7528 H 97.74201242648397 18.492451732611585 123.98323377242625 H 0.0 **** 0.06
7529 H 98.57308280210216 17.240229338979674 124.93766767205415 H 0.0 **** 0.06
7530 H 97.91960134487604 16.846648372931952 123.32976816003861 H 0.0 **** 0.06
7531 C 11.148211356970705 120.08022673002878 24.67847841587863 C 0.0 **** -0.24
7532 H 11.430471026792532 121.09935344185261 24.942589998376008 H 0.0 **** 0.06
7533 H 11.804384709879514 119.37707606270713 25.192398088992547 H 0.0 **** 0.06
7534 H 11.24345667996863 119.9445847775373 23.600684673898968 H 0.0 **** 0.06
7535 H 10.116367997347709 119.89992019756022 24.97744574128302 H 0.0 **** 0.06
7536 C 98.75422570476331 48.90775786495563 52.300731378226715 C 0.0 **** -0.24
7537 H 99.17630129834032 48.644165550709566 53.270002206879525 H 0.0 **** 0.06
7538 H 99.52214339574124 48.811139336956906 51.53256795752591 H 0.0 **** 0.06
7539 H 98.39426053056206 49.93552021154683 52.32709910380839 H 0.0 **** 0.06
7540 H 97.92586256879571 48.23779584485145 52.07206552629086 H 0.0 **** 0.06
7541 C 29.966993319731557 37.99518028430228 8.864053801715016 C 0.0 **** -0.24
7542 H 29.388773596547992 38.25297266765 9.751811532804481 H 0.0 **** 0.06
7543 H 29.41431679505456 37.269931988379 8.267894252731594 H 0.0 **** 0.06
7544 H 30.9226565611483 37.56647241872787 9.166169765707082 H 0.0 **** 0.06
7545 H 30.142654005109478 38.89380399122291 8.272940912674983 H 0.0 **** 0.06
7546 C 78.73722643763537 74.60412375202796 14.831177994685902 C 0.0 **** -0.24
7547 H 78.84402525313409 74.38271078110347 13.768733607348452 H 0.0 **** 0.06
7548 H 79.0996436058575 75.6141207263694 15.02828895966391 H 0.0 **** 0.06
7549 H 79.31934474251183 73.88886259700445 15.412305751650578 H 0.0 **** 0.06
7550 H 77.68673946252991 74.53356302346353 15.11300595012608 H 0.0 **** 0.06
7551 C 69.73446813632545 70.43555786563212 120.15388228055785 C 0.0 **** -0.24
7552 H 69.96383600776305 69.37213965332205 120.0999777386026 H 0.0 **** 0.06
7553 H 69.24153638481677 70.74823775060185 119.23316283093311 H 0.0 **** 0.06
7554 H 70.65724343908667 71.00082354994117 120.28302612745225 H 0.0 **** 0.06
7555 H 69.07385698729193 70.62135308346626 121.0013466211516 H 0.0 **** 0.06
7556 C 28.182886085949065 65.2651737373508 102.68136851143169 C 0.0 **** -0.24
7557 H 27.619804251181222 66.07414595473142 102.2158714541493 H 0.0 **** 0.06
7558 H 27.797287242554887 64.30746288706803 102.33217493785696 H 0.0 **** 0.06
7559 H 28.07794772414519 65.32634586885206 103.76441864822496 H 0.0 **** 0.06
7560 H 29.234804990722353 65.35376309083114 102.41275695699755 H 0.0 **** 0.06
7561 C 81.88297468395729 46.898226678629015 1.193859347219444 C 0.0 **** -0.24
7562 H 82.68614655428723 47.61580914834275 1.030982187731638 H 0.0 **** 0.06
7563 H 82.14992881981345 45.944125594318535 0.7363492743874502 H 0.0 **** 0.06
7564 H 80.96351809089936 47.272935480529014 0.7439009010311111 H 0.0 **** 0.06
7565 H 81.73290515226188 46.757882812293616 2.26425059997824 H 0.0 **** 0.06
7566 C 14.712032573183635 65.3567384353658 70.00428768683588 C 0.0 **** -0.24
7567 H 13.969914671081085 64.57143399239584 69.857159473418 H 0.0 **** 0.06
7568 H 15.45554392539502 65.30788472518321 69.20861570590307 H 0.0 **** 0.06
7569 H 15.201152179834054 65.21743976920374 70.96781222783528 H 0.0 **** 0.06
7570 H 14.22018759034708 66.32876511374644 69.9831380352033 H 0.0 **** 0.06
7571 C 42.715020460528706 84.68077700302321 27.19244297464863 C 0.0 **** -0.24
7572 H 43.59403829014434 84.72949669252297 26.549818084587265 H 0.0 **** 0.06
7573 H 42.61033801777188 85.61899557757755 27.737464266060464 H 0.0 **** 0.06
7574 H 42.8280777236522 83.8593404588743 27.89917468305054 H 0.0 **** 0.06
7575 H 41.82775504767267 84.51508310459144 26.580495768034474 H 0.0 **** 0.06
7576 C 43.52598605643237 47.66963776437717 5.131101779190175 C 0.0 **** -0.24
7577 H 43.06180504191573 47.037501625863456 4.374691475376011 H 0.0 **** 0.06
7578 H 44.45259418083896 47.20630001510082 5.472651657713413 H 0.0 **** 0.06
7579 H 42.8453131911414 47.786367027679944 5.97442166990345 H 0.0 **** 0.06
7580 H 43.745162768357574 48.64732534855159 4.702515455679276 H 0.0 **** 0.06
7581 C 71.52182567262327 96.94104327561163 102.37964333205656 C 0.0 **** -0.24
7582 H 72.5784249514594 96.7575865991611 102.57449279889181 H 0.0 **** 0.06
7583 H 71.17206289965804 97.7575453774518 103.01139567940754 H 0.0 **** 0.06
7584 H 70.95051428743108 96.03902512808331 102.60057162232431 H 0.0 **** 0.06
7585 H 71.38753862243101 97.20806279012253 101.33130546329596 H 0.0 **** 0.06
7586 C 80.13450123644884 91.66935218065532 63.51307136315383 C 0.0 **** -0.24
7587 H 79.86166443491906 91.9172656398552 62.48740636319734 H 0.0 **** 0.06
7588 H 80.7841626351834 90.79307080036517 63.51397391553314 H 0.0 **** 0.06
7589 H 79.23301870289255 91.45479763432706 64.08694965347091 H 0.0 **** 0.06
7590 H 80.66044034045524 92.51146838067166 63.96311367530477 H 0.0 **** 0.06
7591 C 29.643102113027567 14.216628967441352 83.25414376930402 C 0.0 **** -0.24
7592 H 29.799903095248425 13.312423340432645 83.8432977441646 H 0.0 **** 0.06
7593 H 29.474528414728354 15.060545166985037 83.92350547509275 H 0.0 **** 0.06
7594 H 28.77452227455123 14.083679077792965 82.60913904064603 H 0.0 **** 0.06
7595 H 30.52404094200776 14.40884394157635 82.6425320992503 H 0.0 **** 0.06
7596 C 107.40553967492357 76.14190332190884 28.158664222886387 C 0.0 **** -0.24
7597 H 108.3881720114119 76.29188931267514 27.711545005855328 H 0.0 **** 0.06
7598 H 107.52197271612131 75.8809498347819 29.21076324692433 H 0.0 **** 0.06
7599 H 106.88928549619946 75.33618159863974 27.639373660604747 H 0.0 **** 0.06
7600 H 106.82479379749239 77.06028543104819 28.074342111913552 H 0.0 **** 0.06
7601 C 38.432681165875124 107.7804070806306 102.75272280823904 C 0.0 **** -0.24
7602 H 39.10564264027394 108.56967953669857 102.41621039695619 H 0.0 **** 0.06
7603 H 37.69423598860536 108.19874451402029 103.43643707705023 H 0.0 **** 0.06
7604 H 39.00708194346913 107.0090895579487 103.26528958982121 H 0.0 **** 0.06
7605 H 37.926327579225415 107.34464170864675 101.89188121322296 H 0.0 **** 0.06
7606 C 53.71950027921649 89.53752001656069 69.65968737709507 C 0.0 **** -0.24
7607 H 54.05106351198906 89.27189840586927 68.6569049579027 H 0.0 **** 0.06
7608 H 52.66282979859217 89.28888037168647 69.77078944584427 H 0.0 **** 0.06
7609 H 53.85917511527323 90.60709041386508 69.81802510798231 H 0.0 **** 0.06
7610 H 54.30283835415612 88.9831340849923 70.39469188265998 H 0.0 **** 0.06
7611 C 11.987294318550823 49.164681558180405 110.64211743810108 C 0.0 **** -0.24
7612 H 12.348822547179395 49.65597826172103 109.73894160808013 H 0.0 **** 0.06
7613 H 11.872154010051702 48.09632965689562 110.45316307521074 H 0.0 **** 0.06
7614 H 11.024014920243417 49.58966768294886 110.92498900772836 H 0.0 **** 0.06
7615 H 12.702951238041294 49.315994759609836 111.44939999337134 H 0.0 **** 0.06
7616 C 56.31719394250794 29.477400495230967 105.09210000430846 C 0.0 **** -0.24
7617 H 56.25707148372891 30.05025552097385 104.16690375569914 H 0.0 **** 0.06
7618 H 56.37413888627182 28.414570401307486 104.85790318484521 H 0.0 **** 0.06
7619 H 55.43066929101204 29.670064843269273 105.69660742222288 H 0.0 **** 0.06
7620 H 57.206605266039645 29.775751592136203 105.64789841610019 H 0.0 **** 0.06
7621 C 23.868200522563626 66.24243651555778 17.087698320975747 C 0.0 **** -0.24
7622 H 23.007633074363042 65.59203812506505 16.927937993454027 H 0.0 **** 0.06
7623 H 24.036919530843363 66.3643902394228 18.158881795332963 H 0.0 **** 0.06
7624 H 23.677346592062946 67.21504832671116 16.63653356881534 H 0.0 **** 0.06
7625 H 24.7510151752617 65.79577428200233 16.63022608389765 H 0.0 **** 0.06
7626 C 103.02834951920369 58.40835628398014 43.204923525606944 C 0.0 **** -0.24
7627 H 103.50271633725075 59.27152620931275 42.73779771899143 H 0.0 **** 0.06
7628 H 102.34650465015488 58.747246308222486 43.98540342686539 H 0.0 **** 0.06
7629 H 103.79258556879657 57.76660233731678 43.64252243067904 H 0.0 **** 0.06
7630 H 102.47178574081578 57.84878778616229 42.452779529671716 H 0.0 **** 0.06
7631 C 112.8514879274666 87.54968943101642 84.01358295536753 C 0.0 **** -0.24
7632 H 113.81207825712912 87.91617743275896 84.37438681239081 H 0.0 **** 0.06
7633 H 112.95338115172646 87.21604008817064 82.98063541306092 H 0.0 **** 0.06
7634 H 112.11383910655042 88.35053592627902 84.06631647063517 H 0.0 **** 0.06
7635 H 112.52512996159001 86.71435886255728 84.63498632783586 H 0.0 **** 0.06
7636 C 56.20013291967294 23.50156320553168 104.4808936021891 C 0.0 **** -0.24
7637 H 55.13075462029988 23.302626133609834 104.545211230819 H 0.0 **** 0.06
7638 H 56.68238033198185 22.713654200467317 103.90323497996147 H 0.0 **** 0.06
7639 H 56.62519509990919 23.528196638604385 105.48456015243934 H 0.0 **** 0.06
7640 H 56.361711735165386 24.46242355742646 103.99265149195281 H 0.0 **** 0.06
7641 C 110.45806647844992 67.02577810580682 30.748146429063297 C 0.0 **** -0.24
7642 H 110.80702690404496 67.94958193404229 31.208731680369112 H 0.0 **** 0.06
7643 H 111.31402801835918 66.44893286290595 30.396537035274548 H 0.0 **** 0.06
7644 H 109.80830212956977 67.2623126163273 29.905530012424208 H 0.0 **** 0.06
7645 H 109.90176116732064 66.4414796965898 31.481972393040564 H 0.0 **** 0.06
7646 C 45.88804200735481 99.81407976909301 62.01784210832096 C 0.0 **** -0.24
7647 H 46.9008416620464 99.43876267114555 61.874431530861486 H 0.0 **** 0.06
7648 H 45.87661223255034 100.89464927347717 61.86972155197135 H 0.0 **** 0.06
7649 H 45.55457114212717 99.58266557094711 63.02970444371921 H 0.0 **** 0.06
7650 H 45.220444489762684 99.34147641099915 61.29813086782468 H 0.0 **** 0.06
7651 C 83.93442656149755 63.38287335985552 60.76750073810324 C 0.0 **** -0.24
7652 H 84.14768641938056 62.53091481905972 60.1212255396337 H 0.0 **** 0.06
7653 H 83.92734810354497 63.05701723061463 61.807040212918494 H 0.0 **** 0.06
7654 H 82.96095477961691 63.798753799902954 60.50936741962238 H 0.0 **** 0.06
7655 H 84.70217954900598 64.14391027848814 60.62890834620961 H 0.0 **** 0.06
7656 C 11.722271663974084 83.70068142037624 43.60079299237691 C 0.0 **** -0.24
7657 H 11.073840400492315 84.08528315072863 42.81314386455665 H 0.0 **** 0.06
7658 H 11.219330474861366 82.88231781694242 44.11740112016986 H 0.0 **** 0.06
7659 H 11.943025054398674 84.49742972770065 44.31119132288842 H 0.0 **** 0.06
7660 H 12.650896865297625 83.33760310012053 43.161308028116196 H 0.0 **** 0.06
7661 C 89.97563645872847 116.13632226799413 53.04732282613247 C 0.0 **** -0.24
7662 H 89.71175486038382 117.18256449404157 53.201298168869954 H 0.0 **** 0.06
7663 H 90.60298422617336 115.7955426338701 53.87214573440312 H 0.0 **** 0.06
7664 H 90.52061355236938 116.03373416729906 52.108686911255774 H 0.0 **** 0.06
7665 H 89.06769528848875 115.53477918107237 53.00888546356933 H 0.0 **** 0.06
7666 C 54.02134943572639 119.35063745152316 98.28951550460603 C 0.0 **** -0.24
7667 H 54.38116653740278 120.11907456078245 98.97382448236499 H 0.0 **** 0.06
7668 H 53.47033405295062 118.59476369286216 98.84984278427295 H 0.0 **** 0.06
7669 H 54.8706331690191 118.88442642972468 97.78917844096748 H 0.0 **** 0.06
7670 H 53.36489475431321 119.80309239609461 97.54660134207991 H 0.0 **** 0.06
7671 C 120.66200326452127 30.55490183376864 6.4892538548836285 C 0.0 **** -0.24
7672 H 121.67198195832043 30.872537777428818 6.752128838502671 H 0.0 **** 0.06
7673 H 120.10383014680588 31.406622742168793 6.10142536949968 H 0.0 **** 0.06
7674 H 120.16240241760454 30.164768328363195 7.375813797713249 H 0.0 **** 0.06
7675 H 120.7139049847722 29.775321333649302 5.728652640065945 H 0.0 **** 0.06
7676 C 54.34978685668332 51.7280486844231 32.99928587558989 C 0.0 **** -0.24
7677 H 53.4797859682655 51.974706047836634 32.39162787422532 H 0.0 **** 0.06
7678 H 54.028646691993714 51.19288120367861 33.89286489545998 H 0.0 **** 0.06
7679 H 54.8622531222874 52.64521180266257 33.288911196051885 H 0.0 **** 0.06
7680 H 55.02858960517352 51.09880342099896 32.422943983530416 H 0.0 **** 0.06
7681 C 34.642594830985665 27.461569750449314 36.706220070633435 C 0.0 **** -0.24
7682 H 33.729431870419255 26.91048703304392 36.481903461825425 H 0.0 **** 0.06
7683 H 34.6852833422608 27.674019025006828 37.774596277288595 H 0.0 **** 0.06
7684 H 34.64818414124381 28.396875547592856 36.147774498755595 H 0.0 **** 0.06
7685 H 35.50713710985996 26.861985054425304 36.41997264496318 H 0.0 **** 0.06
7686 C 80.12811682826128 85.04396317141845 59.44723840586312 C 0.0 **** -0.24
7687 H 80.26075022297687 85.85452502118653 58.73023937597284 H 0.0 **** 0.06
7688 H 79.12833672243875 84.62186868913918 59.336781206853345 H 0.0 **** 0.06
7689 H 80.25030383677665 85.43105098337378 60.458865842601085 H 0.0 **** 0.06
7690 H 80.87244866935981 84.27021986586018 59.26191690628593 H 0.0 **** 0.06
7691 C 110.28976795336251 72.71482008203819 94.59587861275476 C 0.0 **** -0.24
7692 H 109.73926798469904 72.99404602271393 93.69715985900314 H 0.0 **** 0.06
7693 H 109.84794581337104 71.81657437101542 95.028337394995 H 0.0 **** 0.06
7694 H 110.24048430467832 73.52894911191196 95.3191591711039 H 0.0 **** 0.06
7695 H 111.33004949241405 72.52018412830384 94.33870790995734 H 0.0 **** 0.06
7696 C 63.59344291298707 76.38118935209813 19.77757305950965 C 0.0 **** -0.24
7697 H 64.11292512051452 75.46021632210665 19.513178253593622 H 0.0 **** 0.06
7698 H 62.51732817807742 76.23143385845215 19.682535432958446 H 0.0 **** 0.06
7699 H 63.90915636740938 77.18107190845095 19.107486020892765 H 0.0 **** 0.06
7700 H 63.833990081759296 76.6523406141061 20.804908783693094 H 0.0 **** 0.06
7701 C 17.812895403217 70.80402944540647 106.82317797323319 C 0.0 **** -0.24
7702 H 18.84291893800821 70.54218955800809 107.06312805894984 H 0.0 **** 0.06
7703 H 17.134886170292503 70.12555690304444 107.34126504532375 H 0.0 **** 0.06
7704 H 17.657327596978405 70.72015498157756 105.74733157615393 H 0.0 **** 0.06
7705 H 17.614555967425503 71.8284091483508 107.13981253373734 H 0.0 **** 0.06
7706 C 88.39036313956996 8.865365381284192 9.120073048660316 C 0.0 **** -0.24
7707 H 87.9573385414019 9.406893122200245 8.280021846896119 H 0.0 **** 0.06
7708 H 88.67731210841964 9.57235210214509 9.898728166653058 H 0.0 **** 0.06
7709 H 89.27000187564039 8.316119504033793 8.783803232303342 H 0.0 **** 0.06
7710 H 87.65542924667164 8.164363171655879 9.51807918027825 H 0.0 **** 0.06
7711 C 95.6878756994216 59.40480745332712 39.95596253383104 C 0.0 **** -0.24
7712 H 95.88447822515612 58.51937172053107 39.35202074932144 H 0.0 **** 0.06
7713 H 94.88389383882507 59.98351767934747 39.501343636145776 H 0.0 **** 0.06
7714 H 96.59023814546963 60.01539150092225 40.009159716834745 H 0.0 **** 0.06
7715 H 95.39453413186742 59.101453136879684 40.961099641418485 H 0.0 **** 0.06
7716 C 107.0083874910492 35.43924018992834 70.83427449108655 C 0.0 **** -0.24
7717 H 107.52666726529495 36.026628289030384 70.07677929766169 H 0.0 **** 0.06
7718 H 106.01296075763409 35.17852189460348 70.47401857595588 H 0.0 **** 0.06
7719 H 106.92116061044644 36.02454798641594 71.7505141141105 H 0.0 **** 0.06
7720 H 107.57221430864965 34.5292214940215 71.03715118070642 H 0.0 **** 0.06
7721 C 45.56293849082843 54.43728184306843 62.3017552431528 C 0.0 **** -0.24
7722 H 46.08894498647544 55.25781985394838 62.788769817022796 H 0.0 **** 0.06
7723 H 45.83149485389653 54.40950696615141 61.24530988739912 H 0.0 **** 0.06
7724 H 44.4876736610526 54.586636863839715 62.40016426280357 H 0.0 **** 0.06
7725 H 45.843640461889294 53.4951636883344 62.77277700538582 H 0.0 **** 0.06
7726 C 0.8555251686134806 104.6133238923315 113.59627241859687 C 0.0 **** -0.24
7727 H 1.4065684685686488 103.71937304272245 113.30516962431113 H 0.0 **** 0.06
7728 H 0.10434564828601012 104.83970195954089 112.83910662146346 H 0.0 **** 0.06
7729 H 1.5449978731471532 105.45214087159616 113.68666114218908 H 0.0 **** 0.06
7730 H 0.3657352650367134 104.44120125899997 114.55516365552359 H 0.0 **** 0.06
7731 C 120.50647286386513 83.34464697393776 77.06202703975123 C 0.0 **** -0.24
7732 H 120.74818184405052 84.36243288417751 77.36517422411112 H 0.0 **** 0.06
7733 H 119.85802502910184 83.37168590042913 76.1860058999772 H 0.0 **** 0.06
7734 H 119.9944392062515 82.8341079174777 77.87749015762604 H 0.0 **** 0.06
7735 H 121.42466422998581 82.80989167770596 76.81787519214043 H 0.0 **** 0.06
7736 C 95.06211212768697 116.42169117646796 94.99501774597935 C 0.0 **** -0.24
7737 H 94.9670559926766 116.88380470476176 94.01246183419914 H 0.0 **** 0.06
7738 H 95.85717691801104 116.91578147535523 95.55296078372784 H 0.0 **** 0.06
7739 H 95.3021836678469 115.36470079997565 94.87726911455775 H 0.0 **** 0.06
7740 H 94.12089945271619 116.52328710670196 95.53536363379692 H 0.0 **** 0.06
7741 C 41.69481055312019 70.61311537367297 40.81069041019218 C 0.0 **** -0.24
7742 H 42.48744833116734 70.28637927128493 40.13734235994565 H 0.0 **** 0.06
7743 H 40.9497536141929 71.17766254429431 40.247945809343335 H 0.0 **** 0.06
7744 H 42.118239412263705 71.24722083536913 41.59007607238706 H 0.0 **** 0.06
7745 H 41.222581499506816 69.74230786592241 41.2662645015545 H 0.0 **** 0.06
7746 C 55.478113401751216 94.71286264034464 112.87210086052437 C 0.0 **** -0.24
7747 H 55.35947052171065 94.9670271892418 111.81829014951916 H 0.0 **** 0.06
7748 H 55.23842636078956 93.66020666826579 113.02167098908393 H 0.0 **** 0.06
7749 H 54.80797683286812 95.32769137079802 113.47156414539569 H 0.0 **** 0.06
7750 H 56.50884567738865 94.89755038778272 113.1752000757458 H 0.0 **** 0.06
7751 C 49.56637001236388 28.456974388209176 64.99832982008229 C 0.0 **** -0.24
7752 H 49.71524677006619 29.532500585023342 65.09491049045846 H 0.0 **** 0.06
7753 H 49.028701856241646 28.085500729562455 65.87122444794045 H 0.0 **** 0.06
7754 H 50.53435108878239 27.961663903561316 64.92817413319835 H 0.0 **** 0.06
7755 H 48.985842829821365 28.25061504043248 64.09974111496956 H 0.0 **** 0.06
7756 C 58.22301385688587 76.43957766844312 91.9225873471111 C 0.0 **** -0.24
7757 H 57.21750575647445 76.78535527075177 91.67868342379704 H 0.0 **** 0.06
7758 H 58.87578196249807 76.58734724112077 91.0624904690571 H 0.0 **** 0.06
7759 H 58.19062144139592 75.38119737181898 92.17793318312104 H 0.0 **** 0.06
7760 H 58.60540524144568 77.00764924033112 92.77122877898677 H 0.0 **** 0.06
7761 C 50.43118304569644 71.5592218109445 25.79885379027065 C 0.0 **** -0.24
7762 H 51.30899946727105 71.75666458233871 26.41369227364963 H 0.0 **** 0.06
7763 H 49.56474090055824 71.40173924343753 26.441548883388847 H 0.0 **** 0.06
7764 H 50.60257809317066 70.66796846378006 25.19515194393057 H 0.0 **** 0.06
7765 H 50.247937862886374 72.41111835558371 25.144382123610605 H 0.0 **** 0.06
7766 C 114.301699929558 70.83576755667015 31.38066094070706 C 0.0 **** -0.24
7767 H 114.43799862295396 71.66326790158449 32.077530080814256 H 0.0 **** 0.06
7768 H 114.74619188769718 71.09384404659266 30.419933569512693 H 0.0 **** 0.06
7769 H 113.23567471795553 70.64412861515946 31.249060798330703 H 0.0 **** 0.06
7770 H 114.78452649663701 69.94347572374274 31.77846298771061 H 0.0 **** 0.06
7771 C 20.684217738408563 23.400974137375812 99.80869294547458 C 0.0 **** -0.24
7772 H 20.516437979700115 23.825944683510528 100.79877564071565 H 0.0 **** 0.06
7773 H 21.141106463484284 22.41626053233574 99.90949741496215 H 0.0 **** 0.06
7774 H 21.346433615943482 24.053465275290534 99.24097640376351 H 0.0 **** 0.06
7775 H 19.731145933107204 23.307909855646443 99.28794071537857 H 0.0 **** 0.06
7776 C 78.80507719577241 23.454115763795556 86.93541384283874 C 0.0 **** -0.24
7777 H 78.20822959635805 22.89629371278687 87.65660811484668 H 0.0 **** 0.06
7778 H 78.15399430663015 23.857105246554056 86.15928029313852 H 0.0 **** 0.06
7779 H 79.54265855365948 22.789678785354397 86.48327332547453 H 0.0 **** 0.06
7780 H 79.31646529229651 24.272017545621964 87.4427170883323 H 0.0 **** 0.06
7781 C 87.17266254243108 77.60319443264518 26.866510321666816 C 0.0 **** -0.24
7782 H 87.20083452846794 78.56387326059217 26.35439010026409 H 0.0 **** 0.06
7783 H 86.15252108093014 77.39317519909025 27.188971270216392 H 0.0 **** 0.06
7784 H 87.82889812426762 77.63602010757887 27.736990715466938 H 0.0 **** 0.06
7785 H 87.50901902714875 76.81913233318147 26.18750023959857 H 0.0 **** 0.06
7786 C 31.41140310097282 104.7086243730295 92.4772435242399 C 0.0 **** -0.24
7787 H 31.29420287054276 105.57686766188164 93.12545212174318 H 0.0 **** 0.06
7788 H 32.31765637632975 104.82030656323109 91.88039019367316 H 0.0 **** 0.06
7789 H 30.547681070358436 104.63108773887029 91.81604908202041 H 0.0 **** 0.06
7790 H 31.485608893713845 103.80716981787748 93.08569968981833 H 0.0 **** 0.06
7791 C 73.0014161305711 7.908873910361535 65.05183727321467 C 0.0 **** -0.24
7792 H 73.2080166708133 7.066701843534929 65.71103075494484 H 0.0 **** 0.06
7793 H 72.31711616346425 7.594503885736231 64.2637543122854 H 0.0 **** 0.06
7794 H 73.93208980135128 8.258741595373237 64.60639730166514 H 0.0 **** 0.06
7795 H 72.54788125165229 8.716704007958526 65.62675847863424 H 0.0 **** 0.06
7796 C 113.90413772641675 43.434055914067486 54.29379343334142 C 0.0 **** -0.24
7797 H 114.79221239070458 43.545007092175986 53.6725794050261 H 0.0 **** 0.06
7798 H 114.19957767442654 43.377124705713946 55.3425388288089 H 0.0 **** 0.06
7799 H 113.37728852408736 42.52206046472808 54.01475244094334 H 0.0 **** 0.06
7800 H 113.24851473868237 44.29181683407104 54.14699643821616 H 0.0 **** 0.06
7801 C 51.262674832461336 22.189914296221446 92.02010809341853 C 0.0 **** -0.24
7802 H 50.51368394596913 21.42729257594283 91.80656073327106 H 0.0 **** 0.06
7803 H 52.25871247663325 21.751652324716247 91.94505308894892 H 0.0 **** 0.06
7804 H 51.10966550720557 22.577486485505347 93.02698475676928 H 0.0 **** 0.06
7805 H 51.167972098452005 23.002455157726672 91.2986772021996 H 0.0 **** 0.06
7806 C 50.84061884953036 12.281324381136542 90.46489793053753 C 0.0 **** -0.24
7807 H 51.08062854998076 12.627421964198732 89.45991361468725 H 0.0 **** 0.06
7808 H 51.50262112225522 12.765185659990692 91.18319311518518 H 0.0 **** 0.06
7809 H 50.97449997058902 11.200259454920854 90.51805101224161 H 0.0 **** 0.06
7810 H 49.80603202103373 12.53129746275205 90.69853488064756 H 0.0 **** 0.06
7811 C 9.390714479510592 15.33879964292461 6.47266169821107 C 0.0 **** -0.24
7812 H 9.532590430845133 14.432833334308558 7.062924380501336 H 0.0 **** 0.06
7813 H 8.826197660191525 15.099262771721342 5.570876458858741 H 0.0 **** 0.06
7814 H 10.362720678395078 15.746810065327828 6.194407887253359 H 0.0 **** 0.06
7815 H 8.842816839868291 16.073503390712055 7.060686494145514 H 0.0 **** 0.06
7816 C 38.32595452720984 21.754136946613983 97.82574819783441 C 0.0 **** -0.24
7817 H 38.299727398252486 22.410178746660904 96.95505705900409 H 0.0 **** 0.06
7818 H 38.48145094451506 20.72601999033509 97.50081585899932 H 0.0 **** 0.06
7819 H 37.38029032197086 21.8274386122431 98.3630514613803 H 0.0 **** 0.06
7820 H 39.14144937858296 22.05644775898071 98.48324501196912 H 0.0 **** 0.06
7821 C 78.72753581717511 84.76911620719156 9.257303659546764 C 0.0 **** -0.24
7822 H 78.95577148912189 85.74446080054224 9.687220064753305 H 0.0 **** 0.06
7823 H 78.02424985785862 84.89103621803648 8.433503271991313 H 0.0 **** 0.06
7824 H 78.2850499719017 84.13071531243554 10.022058709604494 H 0.0 **** 0.06
7825 H 79.64486965467887 84.3112930325523 8.888640913768228 H 0.0 **** 0.06
7826 C 61.25501197855334 81.32780825824565 0.6053164395828503 C 0.0 **** -0.24
7827 H 62.2057709303167 81.84658427951807 0.48724229327939383 H 0.0 **** 0.06
7828 H 61.3688722897536 80.28622832105941 0.3025428487300701 H 0.0 **** 0.06
7829 H 60.49992789557871 81.80716997013663 -0.01754957579572647 H 0.0 **** 0.06
7830 H 60.9442848474595 81.37128510798698 1.6497905601111427 H 0.0 **** 0.06
7831 C 53.162281187318115 26.728869464130184 105.49777554643273 C 0.0 **** -0.24
7832 H 53.08415723328588 25.643086400094546 105.54166667515175 H 0.0 **** 0.06
7833 H 54.2055283410121 27.012531680108793 105.35941072540345 H 0.0 **** 0.06
7834 H 52.78853985068176 27.158283258477184 106.42757226631231 H 0.0 **** 0.06
7835 H 52.57008671544733 27.102502147787334 104.66175754885471 H 0.0 **** 0.06
7836 C 100.24899008192804 20.243914667136806 95.1227954426202 C 0.0 **** -0.24
7837 H 99.91972941564907 19.248648321369274 94.82237560039513 H 0.0 **** 0.06
7838 H 101.32072961518054 20.339436908790816 94.94964937338335 H 0.0 **** 0.06
7839 H 100.03668485433246 20.3928808932491 96.18116741128469 H 0.0 **** 0.06
7840 H 99.71709534069075 20.994235283238964 94.53663698456597 H 0.0 **** 0.06
7841 C 74.19566807779489 10.835103650868348 5.069448640779342 C 0.0 **** -0.24
7842 H 73.29965240850589 11.42131674785503 5.271623794583519 H 0.0 **** 0.06
7843 H 74.94830169380151 11.049827891123243 5.828227171597632 H 0.0 **** 0.06
7844 H 74.58592386316928 11.095374643572598 4.085627452276896 H 0.0 **** 0.06
7845 H 73.94793664549297 9.774408438612738 5.092349524433985 H 0.0 **** 0.06
7846 C 91.59334622821987 105.77240718645871 32.700177569090236 C 0.0 **** -0.24
7847 H 91.51752666069817 104.73227529565509 32.38381428287249 H 0.0 **** 0.06
7848 H 92.13991741708762 106.34132505618933 31.947750745893977 H 0.0 **** 0.06
7849 H 92.12389702492626 105.82506629976862 33.65103906932979 H 0.0 **** 0.06
7850 H 90.59434052055136 106.1901174143758 32.81799682053497 H 0.0 **** 0.06
7851 C 116.31653282932164 79.2822282372295 112.08650740254768 C 0.0 **** -0.24
7852 H 116.67448382414369 79.49876029438241 111.08016916879323 H 0.0 **** 0.06
7853 H 117.15640256808206 78.9850360624303 112.71445113862124 H 0.0 **** 0.06
7854 H 115.58724693498178 78.47352654852666 112.04690520906574 H 0.0 **** 0.06
7855 H 115.84765159178653 80.17379278154426 112.5043361002702 H 0.0 **** 0.06
7856 C 77.69595358148905 117.49824146778596 60.80021986452249 C 0.0 **** -0.24
7857 H 76.78806094325404 117.20178089225712 60.27659433301767 H 0.0 **** 0.06
7858 H 77.43044207531386 118.03706321889004 61.71056075950858 H 0.0 **** 0.06
7859 H 78.29267357595734 118.1441520302858 60.156680849543605 H 0.0 **** 0.06
7860 H 78.272572139013 116.6103992841164 61.05899579549347 H 0.0 **** 0.06
7861 C 58.43738545828765 117.20802940352687 84.03281632095522 C 0.0 **** -0.24
7862 H 58.158933651144025 116.2051839551776 83.70738835595606 H 0.0 **** 0.06
7863 H 59.47547668457864 117.40308966486742 83.76349901112357 H 0.0 **** 0.06
7864 H 58.32095164853902 117.28345060900912 85.11420641991239 H 0.0 **** 0.06
7865 H 57.7914301468133 117.93886147079945 83.54586667974951 H 0.0 **** 0.06
7866 C 53.908696689907686 71.63631800151839 28.458599347769024 C 0.0 **** -0.24
7867 H 53.43777892366751 71.78584339221621 29.430166802976643 H 0.0 **** 0.06
7868 H 53.486616941169245 72.33893475365187 27.739151529366268 H 0.0 **** 0.06
7869 H 53.72728144881552 70.61629102835687 28.120121605013992 H 0.0 **** 0.06
7870 H 54.98242179004694 71.80526182909821 28.545594447747064 H 0.0 **** 0.06
7871 C 111.10936855223713 48.84740072325864 64.64428736421263 C 0.0 **** -0.24
7872 H 111.8003574937029 48.43604828596859 65.38066105070493 H 0.0 **** 0.06
7873 H 111.66277688117464 49.14682838859978 63.75455708403058 H 0.0 **** 0.06
7874 H 110.60338994036704 49.71628733636386 65.06746523439278 H 0.0 **** 0.06
7875 H 110.37100780234891 48.091577583279076 64.37758066571595 H 0.0 **** 0.06
7876 C 78.80265406928248 48.3900531611022 81.45796328336559 C 0.0 **** -0.24
7877 H 78.83550781456182 47.499389653795376 82.08517284681588 H 0.0 **** 0.06
7878 H 79.07092642468325 48.12419959374874 80.43511208577029 H 0.0 **** 0.06
7879 H 79.50858201174282 49.12837764311277 81.83908326309114 H 0.0 **** 0.06
7880 H 77.79644048520191 48.80856497718075 81.47357664846955 H 0.0 **** 0.06
7881 C 24.79101477689835 87.85522762983422 18.449827468514258 C 0.0 **** -0.24
7882 H 25.64286203001012 87.50178115333537 17.868654030612532 H 0.0 **** 0.06
7883 H 23.867923953871866 87.48524849755763 18.00256967883331 H 0.0 **** 0.06
7884 H 24.78259615054037 88.94524165303565 18.45386097824192 H 0.0 **** 0.06
7885 H 24.87273720884349 87.48888655924398 19.472923429193884 H 0.0 **** 0.06
7886 C 10.634551773156744 93.162784513427 63.559511597219355 C 0.0 **** -0.24
7887 H 11.469926507183146 92.4659260589537 63.63841115521417 H 0.0 **** 0.06
7888 H 10.70296689753819 93.90310265845366 64.35760821301992 H 0.0 **** 0.06
7889 H 9.696876236690372 92.61541207118478 63.65026208172121 H 0.0 **** 0.06
7890 H 10.671076517161623 93.66492878526361 62.592718039023126 H 0.0 **** 0.06
7891 C 96.16953541209662 57.05616712078752 21.54339244348438 C 0.0 **** -0.24
7892 H 95.25289927288051 56.54467236515421 21.838827826349075 H 0.0 **** 0.06
7893 H 96.05303256816987 58.1285578203818 21.69669582869085 H 0.0 **** 0.06
7894 H 96.3722734736443 56.85815125837057 20.4911953765191 H 0.0 **** 0.06
7895 H 97.00001032351602 56.69020420941084 22.14755161466809 H 0.0 **** 0.06
7896 C 46.25963570461448 66.42059156358962 79.99009288420143 C 0.0 **** -0.24
7897 H 46.73727101338801 67.39968562370396 79.96312981014137 H 0.0 **** 0.06
7898 H 45.972366373974324 66.12869334702307 78.97950467977267 H 0.0 **** 0.06
7899 H 45.37284575190961 66.46571781282026 80.62169391988306 H 0.0 **** 0.06
7900 H 46.95717585624607 65.68672446538949 80.39487377884205 H 0.0 **** 0.06
7901 C 37.5006988383131 113.08580174144616 77.973507490896 C 0.0 **** -0.24
7902 H 36.56830480706412 113.20834573935744 78.52456923247934 H 0.0 **** 0.06
7903 H 37.49053210886893 113.73023616763942 77.09479617057332 H 0.0 **** 0.06
7904 H 37.60559882408131 112.04684504972532 77.66182870641558 H 0.0 **** 0.06
7905 H 38.33926963952791 113.35984922321632 78.61480833670174 H 0.0 **** 0.06
7906 C 22.256602368243023 80.79194494932521 39.25099971209383 C 0.0 **** -0.24
7907 H 22.005776785396677 81.8070863482251 39.55784192913138 H 0.0 **** 0.06
7908 H 21.343622293883016 80.19979174509628 39.17751670237228 H 0.0 **** 0.06
7909 H 22.922315514234754 80.34334361533888 39.98762071358201 H 0.0 **** 0.06
7910 H 22.752395741433645 80.81679611827141 38.28065387062365 H 0.0 **** 0.06
7911 C 27.47840539707336 112.64860262619106 88.46890192635951 C 0.0 **** -0.24
7912 H 27.962280474019565 113.46631903871051 87.93561829022678 H 0.0 **** 0.06
7913 H 28.16399264497602 112.2441825541989 89.21305728496775 H 0.0 **** 0.06
7914 H 27.20506157342942 111.86504935343608 87.76175401850278 H 0.0 **** 0.06
7915 H 26.5801562410839 113.01876596924693 88.96450593663363 H 0.0 **** 0.06
7916 C 57.956624025739956 76.6489382033259 82.69042696112993 C 0.0 **** -0.24
7917 H 57.59034963027938 77.1185201944812 81.77759372413558 H 0.0 **** 0.06
7918 H 57.324400692230284 76.94173205784062 83.52890781534671 H 0.0 **** 0.06
7919 H 58.98146902323094 76.96975757025481 82.87802064229749 H 0.0 **** 0.06
7920 H 57.93038241872344 75.56490131879102 82.57605405713457 H 0.0 **** 0.06
7921 C 78.2380700653627 109.10270704702998 107.13052460392264 C 0.0 **** -0.24
7922 H 78.28922931536657 108.84347066927478 108.18791002418192 H 0.0 **** 0.06
7923 H 78.62815658839202 108.27708231677218 106.53522634100473 H 0.0 **** 0.06
7924 H 78.83309939701972 109.99764402305078 106.94619702632214 H 0.0 **** 0.06
7925 H 77.20102856851518 109.29327342234461 106.8527798633231 H 0.0 **** 0.06
7926 C 90.55605312257589 90.02087626223002 67.62960459962613 C 0.0 **** -0.24
7927 H 91.57086493927876 89.64241236955633 67.50807373100247 H 0.0 **** 0.06
7928 H 89.93540816099284 89.66899522968438 66.80554800146126 H 0.0 **** 0.06
7929 H 90.57286990958565 91.1105250670119 67.63411681158419 H 0.0 **** 0.06
7930 H 90.14511724621534 89.66043404169591 68.57345517081285 H 0.0 **** 0.06
7931 C 45.5890190122191 85.49434853108043 29.14488190665972 C 0.0 **** -0.24
7932 H 45.952195665156665 86.51944072671135 29.22696411225519 H 0.0 **** 0.06
7933 H 44.686999314739865 85.38066593286959 29.747417814532042 H 0.0 **** 0.06
7934 H 46.35493319947457 84.80751336827686 29.503156313009143 H 0.0 **** 0.06
7935 H 45.36078902612742 85.27264221096527 28.102646301958274 H 0.0 **** 0.06
7936 C 72.29490999493751 34.90652258102941 17.994827017144416 C 0.0 **** -0.24
7937 H 71.3859906187879 34.686841037668444 18.55434668579352 H 0.0 **** 0.06
7938 H 72.09046038857697 34.83655905060189 16.92728072964846 H 0.0 **** 0.06
7939 H 73.06916410860353 34.18840561824376 18.26496828423879 H 0.0 **** 0.06
7940 H 72.63431947804193 35.91440016877027 18.235695711481952 H 0.0 **** 0.06
7941 C 91.99579958853471 65.90079311968753 104.81602070881587 C 0.0 **** -0.24
7942 H 91.98121382757355 66.98691534223298 104.72259422883582 H 0.0 **** 0.06
7943 H 92.04888291586153 65.62789269232759 105.86987326643164 H 0.0 **** 0.06
7944 H 92.86615420151398 65.50353980427423 104.29404624479902 H 0.0 **** 0.06
7945 H 91.08776532928724 65.48632365418398 104.37785913624194 H 0.0 **** 0.06
7946 C 114.49939543117736 23.300393973778363 48.082784609946714 C 0.0 **** -0.24
7947 H 114.34985598243263 23.976585385608722 48.92438179573003 H 0.0 **** 0.06
7948 H 115.31154392787853 22.609863872468573 48.31194121560702 H 0.0 **** 0.06
7949 H 114.75395737561409 23.87833685214555 47.193779543024675 H 0.0 **** 0.06
7950 H 113.58336530318905 22.73870309771339 47.901230643144686 H 0.0 **** 0.06
7951 C 51.38942250448764 94.20203756644256 118.8669065476739 C 0.0 **** -0.24
7952 H 51.5869492615563 94.17940458517634 119.9388252287598 H 0.0 **** 0.06
7953 H 52.32306012406457 94.05797937798019 118.3237300506262 H 0.0 **** 0.06
7954 H 50.95638596170858 95.16526897580009 118.59834691324428 H 0.0 **** 0.06
7955 H 50.69107391151107 93.40578488045585 118.60893054433402 H 0.0 **** 0.06
7956 C 102.54542941973368 61.24822237896424 2.88329703200246 C 0.0 **** -0.24
7957 H 103.39730276047845 61.214893348122274 2.2037142758357504 H 0.0 **** 0.06
7958 H 102.75036452842828 60.6265864366855 3.7550975155062787 H 0.0 **** 0.06
7959 H 101.65823562063257 60.874272307918716 2.3707911341752776 H 0.0 **** 0.06
7960 H 102.37387688959895 62.276781223161834 3.201111686833798 H 0.0 **** 0.06
7961 C 24.29177492358817 14.629945756297886 95.42834795634028 C 0.0 **** -0.24
7962 H 24.289126752846016 13.93379218890665 94.59014042952302 H 0.0 **** 0.06
7963 H 23.670767055601253 15.492860304921606 95.18525027095514 H 0.0 **** 0.06
7964 H 25.31208533549593 14.959567579726482 95.62332693570819 H 0.0 **** 0.06
7965 H 23.893963225178226 14.134775207863157 96.31358274625563 H 0.0 **** 0.06
7966 C 1.643086328566767 81.71028587237338 121.34374523901147 C 0.0 **** -0.24
7967 H 1.1375969216443877 82.30439470926711 122.1049744085507 H 0.0 **** 0.06
7968 H 2.722528898159908 81.81802593224224 121.45715427455627 H 0.0 **** 0.06
7969 H 1.344467767979836 82.05689836813767 120.3553605269422 H 0.0 **** 0.06
7970 H 1.3684370604745482 80.661405288054 121.45980581542128 H 0.0 **** 0.06
7971 C 22.00908150069131 50.34250935077512 17.546713838444987 C 0.0 **** -0.24
7972 H 22.27874566139326 49.36074644744858 17.93779519220226 H 0.0 **** 0.06
7973 H 21.396570761544467 50.22120775444628 16.653289961698476 H 0.0 **** 0.06
7974 H 22.916214138020564 50.893026353080984 17.29365610371343 H 0.0 **** 0.06
7975 H 21.448353877334284 50.89229154677025 18.301282368375382 H 0.0 **** 0.06
7976 C 119.48807973735589 92.6298442055774 115.78443474849324 C 0.0 **** -0.24
7977 H 120.00277123030526 93.30799334238958 115.10368139475494 H 0.0 **** 0.06
7978 H 120.21341836321626 91.96257666237278 116.25006294179764 H 0.0 **** 0.06
7979 H 118.75809837903563 92.04178049512507 115.22638985474242 H 0.0 **** 0.06
7980 H 118.97704605582675 93.20694784750401 116.55495448171214 H 0.0 **** 0.06
7981 C 107.65371957990185 98.1470265639154 115.55353077974686 C 0.0 **** -0.24
7982 H 106.7713405299529 97.58984362894608 115.86721224369438 H 0.0 **** 0.06
7983 H 108.23075713130203 97.5469123284102 114.84958170115925 H 0.0 **** 0.06
7984 H 108.26714864681269 98.37639592594769 116.42455268241778 H 0.0 **** 0.06
7985 H 107.34569766475984 99.0756030792827 115.07152151114752 H 0.0 **** 0.06
7986 C 93.65475761284566 87.95494252437626 28.160349953700575 C 0.0 **** -0.24
7987 H 94.20039976216799 87.60007185200806 29.033953462299166 H 0.0 **** 0.06
7988 H 93.38833296709477 87.10650227500369 27.528232178316898 H 0.0 **** 0.06
7989 H 94.28135858303978 88.64516302761976 27.5962563962226 H 0.0 **** 0.06
7990 H 92.747555699006 88.46631222812505 28.481896855696164 H 0.0 **** 0.06
7991 C 28.89419306941396 89.76117070880535 105.38337641933218 C 0.0 **** -0.24
7992 H 28.951794630030456 90.81366976755038 105.66279466250764 H 0.0 **** 0.06
7993 H 28.706245512562283 89.67957158445606 104.31249732188076 H 0.0 **** 0.06
7994 H 28.082947915216486 89.28389129292893 105.93247051816567 H 0.0 **** 0.06
7995 H 29.835679698152354 89.26974203063047 105.62617349934844 H 0.0 **** 0.06
7996 C 75.82244799889537 55.72926431727595 79.93505971231826 C 0.0 **** -0.24
7997 H 76.81629666293287 56.08279749331321 80.2107912269343 H 0.0 **** 0.06
7998 H 75.1962460014426 55.67694014567088 80.82651808203008 H 0.0 **** 0.06
7999 H 75.90025905361824 54.73902704488982 79.48676152580327 H 0.0 **** 0.06
8000 H 75.37809432101022 56.42025255473561 79.2189858691442 H 0.0 **** 0.06
8001 C 64.44068082302829 71.26772344078192 57.4619171461071 C 0.0 **** -0.24
8002 H 64.17446968843248 72.21867541987586 57.000256357864316 H 0.0 **** 0.06
8003 H 64.2612795656247 70.4582282880568 56.753272964397695 H 0.0 **** 0.06
8004 H 63.831868114507955 71.11310372353519 58.352085936182576 H 0.0 **** 0.06
8005 H 65.49468067217074 71.28061566573479 57.73862600272702 H 0.0 **** 0.06
8006 C 113.20237719036133 29.986717596497783 60.77896906851794 C 0.0 **** -0.24
8007 H 114.18941337147294 30.2928349321447 61.12705169530727 H 0.0 **** 0.06
8008 H 112.45063266671093 30.672310429773603 61.169571583991 H 0.0 **** 0.06
8009 H 112.99218534034713 28.97672031553735 61.1302290319519 H 0.0 **** 0.06
8010 H 113.18095848311845 30.0048840568915 59.68968403493875 H 0.0 **** 0.06
8011 C 49.16718499721355 39.11974782706767 73.1276918927727 C 0.0 **** -0.24
8012 H 49.22846347606918 40.17696986195966 73.38370784123222 H 0.0 **** 0.06
8013 H 48.95491771336299 39.014965578939325 72.06429830609014 H 0.0 **** 0.06
8014 H 48.37037941443526 38.652329373010076 73.70599159312525 H 0.0 **** 0.06
8015 H 50.116029986758576 38.634043967049195 73.35862203487127 H 0.0 **** 0.06
8016 C 0.5363070321602805 32.873826324739355 100.80429527030367 C 0.0 **** -0.24
8017 H -0.15826612855232725 32.31325230283835 101.4300369136115 H 0.0 **** 0.06
8018 H 1.557719894663407 32.5715870402355 101.0350091046779 H 0.0 **** 0.06
8019 H 0.41959356713799423 33.939963757281475 100.99726577903962 H 0.0 **** 0.06
8020 H 0.32462254102944144 32.66981912705188 99.75454460331946 H 0.0 **** 0.06
8021 C 103.43588835139612 37.88836336608391 99.0630195648191 C 0.0 **** -0.24
8022 H 104.34644591151672 37.65562207768127 98.50999317837584 H 0.0 **** 0.06
8023 H 102.68100437541078 37.12883046645325 98.85761822936527 H 0.0 **** 0.06
8024 H 103.06196335202725 38.864474686198385 98.7531945826271 H 0.0 **** 0.06
8025 H 103.65338917781136 37.9050505214333 100.13087003422628 H 0.0 **** 0.06
8026 C 25.50200031304081 55.859715912144566 83.14790139594206 C 0.0 **** -0.24
8027 H 24.74429355144875 56.631603848855804 83.01336820389218 H 0.0 **** 0.06
8028 H 25.047724122116108 54.87720572720076 83.01621375074211 H 0.0 **** 0.06
8029 H 25.922966443560796 55.93416873018427 84.15083311349497 H 0.0 **** 0.06
8030 H 26.293813797556453 55.99648553646344 82.41126227541525 H 0.0 **** 0.06
8031 C 2.8908464237421896 62.90573448078163 80.00997387451815 C 0.0 **** -0.24
8032 H 3.919459428075271 63.208558175792405 79.81143203726776 H 0.0 **** 0.06
8033 H 2.5752829660260517 63.30476331378473 80.97418828205699 H 0.0 **** 0.06
8034 H 2.8304692854086397 61.817712362041846 80.02741400127657 H 0.0 **** 0.06
8035 H 2.2405471849815797 63.29312732989365 79.22549289827815 H 0.0 **** 0.06
8036 C 43.09154370113896 115.97514198652829 79.46290775102955 C 0.0 **** -0.24
8037 H 43.95837380420892 116.62055393456467 79.32114494252951 H 0.0 **** 0.06
8038 H 43.38262560950804 115.0987275415095 80.04294293353854 H 0.0 **** 0.06
8039 H 42.71183624752945 115.65907367686799 78.49120780260625 H 0.0 **** 0.06
8040 H 42.31417772834399 116.52170191888729 79.99614602084915 H 0.0 **** 0.06
8041 C 116.12794023635388 93.74256960800342 30.737875496559575 C 0.0 **** -0.24
8042 H 115.63319552400948 94.59722378937668 31.19878284324347 H 0.0 **** 0.06
8043 H 115.53564089355177 92.84438352356334 30.909333630673252 H 0.0 **** 0.06
8044 H 117.11815328111528 93.6155901450321 31.17583105104933 H 0.0 **** 0.06
8045 H 116.2251515969511 93.91442067266671 29.665539302952794 H 0.0 **** 0.06
8046 C 76.6042415201263 25.491307481606057 83.52900229195455 C 0.0 **** -0.24
8047 H 76.82984487865875 26.492472766198944 83.16041450412516 H 0.0 **** 0.06
8048 H 76.21086267834875 24.88497492223619 82.71326850844986 H 0.0 **** 0.06
8049 H 75.8613871694788 25.556997629905418 84.3250933810047 H 0.0 **** 0.06
8050 H 77.51410067252348 25.034004657952664 83.91742750157536 H 0.0 **** 0.06
8051 C 108.64063719429333 35.70742337841044 121.2878769453057 C 0.0 **** -0.24
8052 H 109.72442515656348 35.669829572291384 121.17636423750926 H 0.0 **** 0.06
8053 H 108.18829509041029 35.99509777995212 120.33906572037327 H 0.0 **** 0.06
8054 H 108.3792932178705 36.43805960354616 122.0529591018313 H 0.0 **** 0.06
8055 H 108.27182101014654 34.724898684885225 121.58339951427422 H 0.0 **** 0.06
8056 C 36.82507329268694 42.45185575143432 113.81614004605854 C 0.0 **** -0.24
8057 H 36.243397404819746 42.245420616917386 114.71450489368345 H 0.0 **** 0.06
8058 H 36.66377115865629 43.485616499380626 113.50936801110524 H 0.0 **** 0.06
8059 H 36.50899260483132 41.781707124381 113.01742453861144 H 0.0 **** 0.06
8060 H 37.883010323000434 42.29514752111925 114.02449654140983 H 0.0 **** 0.06
8061 C 115.71259676481367 25.311942500663868 67.46230058466037 C 0.0 **** -0.24
8062 H 116.33264883254975 24.415810872445164 67.45111038530254 H 0.0 **** 0.06
8063 H 114.96971004250679 25.249149075622206 66.6667768315771 H 0.0 **** 0.06
8064 H 116.33955475478723 26.189662811519057 67.30662007685069 H 0.0 **** 0.06
8065 H 115.20815540946865 25.392692500400237 68.4255269860422 H 0.0 **** 0.06
8066 C 63.12683489149589 15.115263375898834 60.2140816456335 C 0.0 **** -0.24
8067 H 62.241859228649545 15.515617100547054 60.70938429578746 H 0.0 **** 0.06
8068 H 63.58563049671699 14.35683588958982 60.849668879712794 H 0.0 **** 0.06
8069 H 63.83885468261724 15.92073097368749 60.03664876708093 H 0.0 **** 0.06
8070 H 62.839498843163184 14.66755583143052 59.26320594032268 H 0.0 **** 0.06
8071 C 69.551349586031 21.967929191569397 15.672995556933529 C 0.0 **** -0.24
8072 H 70.5458948177374 21.526423113366775 15.721170022121669 H 0.0 **** 0.06
8073 H 69.47940050888224 22.781949868316474 16.395005549202637 H 0.0 **** 0.06
8074 H 68.80547706495577 21.208560587976706 15.905232825274737 H 0.0 **** 0.06
8075 H 69.37507571232948 22.355304988413906 14.66984891521966 H 0.0 **** 0.06
8076 C 121.1285169584661 40.094045912456494 89.82592478281886 C 0.0 **** -0.24
8077 H 122.17717346790464 39.826224773502986 89.69494350707083 H 0.0 **** 0.06
8078 H 120.68206650159459 40.29745549091081 88.85283629106073 H 0.0 **** 0.06
8079 H 121.05768799454563 40.984490615469696 90.45164777857181 H 0.0 **** 0.06
8080 H 120.59999102835238 39.269683073578705 90.30455716032073 H 0.0 **** 0.06
8081 C 4.027548465506811 0.35851490367646655 55.63237866187214 C 0.0 **** -0.24
8082 H 3.4788607085580168 -0.5478966746854788 55.37562872978691 H 0.0 **** 0.06
8083 H 4.845458889631146 0.10940951531211418 56.30746286343249 H 0.0 **** 0.06
8084 H 3.354894484295329 1.0642818311680138 56.120327842459744 H 0.0 **** 0.06
8085 H 4.429537700080942 0.8091061233250194 54.724302687310455 H 0.0 **** 0.06
8086 C 100.95380838401235 30.984162662026904 111.61789806805979 C 0.0 **** -0.24
8087 H 100.5419437629094 31.885425741852487 112.0708992259911 H 0.0 **** 0.06
8088 H 100.6367523220465 30.111637324411276 112.19022207100417 H 0.0 **** 0.06
8089 H 102.04186669718194 31.042632484074886 111.61812286845472 H 0.0 **** 0.06
8090 H 100.59526891400532 30.89615483839276 110.59230517595847 H 0.0 **** 0.06
8091 C 97.7761888377207 30.52893537189351 119.10345147733216 C 0.0 **** -0.24
8092 H 96.94769573746228 30.488184998621932 118.39685735344864 H 0.0 **** 0.06
8093 H 98.20265419319527 29.5327290853528 119.22125659750304 H 0.0 **** 0.06
8094 H 97.41383684657607 30.886955656239138 120.06699452584093 H 0.0 **** 0.06
8095 H 98.5400073808394 31.20927688217421 118.72705094326994 H 0.0 **** 0.06
8096 C 93.57075529913422 74.63584393758174 19.94416148942682 C 0.0 **** -0.24
8097 H 94.46944055309635 74.18179516079732 20.363590048523577 H 0.0 **** 0.06
8098 H 92.77984004443 74.63414768020112 20.694259412838903 H 0.0 **** 0.06
8099 H 93.248369205018 74.06457214951868 19.073961267065386 H 0.0 **** 0.06
8100 H 93.78764543610558 75.66167439411541 19.646685041470562 H 0.0 **** 0.06
8101 C 9.263790402071209 114.78151086491056 74.02201610741139 C 0.0 **** -0.24
8102 H 9.054771210510808 113.97037553066028 73.32445882644475 H 0.0 **** 0.06
8103 H 9.774454088953462 115.58855584785113 73.49701545863047 H 0.0 **** 0.06
8104 H 9.897892541513954 114.41185140155619 74.82810548646694 H 0.0 **** 0.06
8105 H 8.327129267774694 115.15230209551615 74.43784355965988 H 0.0 **** 0.06
8106 C 56.423796537331896 68.87952208009231 22.53039398907653 C 0.0 **** -0.24
8107 H 57.01666103892046 69.78047997798981 22.371916015305516 H 0.0 **** 0.06
8108 H 57.055953304794016 68.09857609330547 22.954137951114234 H 0.0 **** 0.06
8109 H 56.015831101663764 68.54144958810083 21.57798972383464 H 0.0 **** 0.06
8110 H 55.606848222823416 69.09894474281468 23.217897341381125 H 0.0 **** 0.06
8111 C 101.15243673808556 81.49113452370726 2.389747760621395 C 0.0 **** -0.24
8112 H 101.6364943724717 80.97031493788289 3.2156465738482165 H 0.0 **** 0.06
8113 H 101.08524272761099 80.82469680497319 1.5289809408812793 H 0.0 **** 0.06
8114 H 101.73735314702907 82.37157031899211 2.1226553787936258 H 0.0 **** 0.06
8115 H 100.15076535750637 81.79853922378364 2.690903079527649 H 0.0 **** 0.06
8116 C 82.49928882941082 11.545916745061675 121.00653316670673 C 0.0 **** -0.24
8117 H 83.00352135391725 11.92281095958839 120.11530920372505 H 0.0 **** 0.06
8118 H 83.20763516504672 11.507491343301922 121.8342309833885 H 0.0 **** 0.06
8119 H 82.11360705208106 10.545639540545267 120.80970637791864 H 0.0 **** 0.06
8120 H 81.67399358514757 12.209420810574045 121.26396043016513 H 0.0 **** 0.06
8121 C 114.5628901800611 61.49973309931568 94.20013308184036 C 0.0 **** -0.24
8122 H 113.60912071997234 62.012778931228866 94.32405848811771 H 0.0 **** 0.06
8123 H 114.38374183436142 60.452292169722 93.9594215818235 H 0.0 **** 0.06
8124 H 115.1341503659189 61.5672011691243 95.1262878184707 H 0.0 **** 0.06
8125 H 115.12558475726695 61.96814412456314 93.39207697066962 H 0.0 **** 0.06
8126 C 14.649297057321057 38.97015259864207 22.082510662433165 C 0.0 **** -0.24
8127 H 13.932701105019927 38.184475511101766 21.840431064072384 H 0.0 **** 0.06
8128 H 14.50690935306357 39.28680217570613 23.115672550377376 H 0.0 **** 0.06
8129 H 14.495039731470413 39.81955262764559 21.416664581624588 H 0.0 **** 0.06
8130 H 15.662075181347717 38.587252601068954 21.955177264670574 H 0.0 **** 0.06
8131 C 71.27144406364135 63.66234352657855 44.36429564727217 C 0.0 **** -0.24
8132 H 71.16871964899812 64.72426559659048 44.14230941552697 H 0.0 **** 0.06
8133 H 70.325627797029 63.156351430845675 44.16597924930491 H 0.0 **** 0.06
8134 H 71.53870082266215 63.5346061149595 45.41367724167006 H 0.0 **** 0.06
8135 H 72.05186256295124 63.23353655728053 43.736151377666346 H 0.0 **** 0.06
8136 C 45.59082791665713 108.88866078362446 96.38644659136533 C 0.0 **** -0.24
8137 H 44.52047746398833 108.76707304249129 96.22497847959028 H 0.0 **** 0.06
8138 H 45.852623572322784 108.52371076619795 97.38036173182445 H 0.0 **** 0.06
8139 H 45.85292272785847 109.94389140276496 96.30527150555228 H 0.0 **** 0.06
8140 H 46.13890435444324 108.31972424852444 95.63460205214237 H 0.0 **** 0.06
8141 C 25.416308599720054 92.62985317977514 61.73244968290595 C 0.0 **** -0.24
8142 H 26.11100998646404 91.95946860615409 62.23763793253565 H 0.0 **** 0.06
8143 H 25.668301149119344 93.66347453356683 61.973033239382076 H 0.0 **** 0.06
8144 H 24.399842953648033 92.41653168538295 62.064413959127435 H 0.0 **** 0.06
8145 H 25.485530663968177 92.47994711594959 60.65554897965728 H 0.0 **** 0.06
8146 C 4.453668018282624 17.28217410225244 24.243509457004535 C 0.0 **** -0.24
8147 H 4.734742319694423 16.230438008250303 24.191489080225637 H 0.0 **** 0.06
8148 H 5.204410747408378 17.884964553640145 23.731734335107234 H 0.0 **** 0.06
8149 H 4.389683174468466 17.590346755057226 25.287205426627423 H 0.0 **** 0.06
8150 H 3.484578629785627 17.423589742327295 23.763528044197272 H 0.0 **** 0.06
8151 C 106.28836886613928 68.44459994435815 38.07628108660731 C 0.0 **** -0.24
8152 H 105.28358117779673 68.85215522662111 38.187802843040345 H 0.0 **** 0.06
8153 H 106.82017153980803 68.99543862185227 37.300399406487486 H 0.0 **** 0.06
8154 H 106.22580724222155 67.3927990336499 37.79684307150251 H 0.0 **** 0.06
8155 H 106.82388398544046 68.53811364900865 39.021072838160876 H 0.0 **** 0.06
8156 C 97.07571521197906 91.84342741670565 114.22347138386223 C 0.0 **** -0.24
8157 H 96.40155588972527 92.10550045950262 113.40755491883615 H 0.0 **** 0.06
8158 H 97.53088342406224 92.74915089476893 114.62405168838511 H 0.0 **** 0.06
8159 H 97.85356534231133 91.17794241195361 113.85133229772056 H 0.0 **** 0.06
8160 H 96.51320470066324 91.34042234845522 115.01051494948202 H 0.0 **** 0.06
8161 C 91.25856832011624 94.82475995211303 37.39495418582353 C 0.0 **** -0.24
8162 H 91.76627931198065 94.9463019789647 36.43827985585583 H 0.0 **** 0.06
8163 H 90.37029438954886 94.20765509648467 37.259128050742284 H 0.0 **** 0.06
8164 H 90.96648405647557 95.80337844465956 37.77737593962516 H 0.0 **** 0.06
8165 H 91.9306540312985 94.34333056547271 38.10523317499054 H 0.0 **** 0.06
8166 C 90.498224752219 12.118861855187916 47.2509337329393 C 0.0 **** -0.24
8167 H 91.42377773789919 12.6336874372073 47.51152167999737 H 0.0 **** 0.06
8168 H 90.65449872361607 11.52867746318256 46.34771860925596 H 0.0 **** 0.06
8169 H 89.7123211342221 12.85300412590999 47.07472841867134 H 0.0 **** 0.06
8170 H 90.20497262364054 11.46195680947315 48.06918589519876 H 0.0 **** 0.06
8171 C 55.742166755605524 102.65811628994823 11.204604162838773 C 0.0 **** -0.24
8172 H 55.32562077301955 102.2947777070188 10.26538789301829 H 0.0 **** 0.06
8173 H 56.49873982057193 101.95784783200807 11.56111234842481 H 0.0 **** 0.06
8174 H 54.94741731384744 102.74302552002473 11.945953252239992 H 0.0 **** 0.06
8175 H 56.197588473066816 103.63558630688647 11.04602255269345 H 0.0 **** 0.06
8176 C 94.39466575309885 68.98503940827999 69.15551304821611 C 0.0 **** -0.24
8177 H 94.94566708830686 68.58843099671878 68.30269829198969 H 0.0 **** 0.06
8178 H 94.91023209559727 69.86467489380072 69.54196163399382 H 0.0 **** 0.06
8179 H 94.3365581187986 68.22509731593533 69.93465438198953 H 0.0 **** 0.06
8180 H 93.38940113662609 69.26172558405517 68.84080459016332 H 0.0 **** 0.06
8181 C 45.74635398299853 46.58359850227783 59.64500360184837 C 0.0 **** -0.24
8182 H 45.6030478826554 45.50613616588616 59.733525047963155 H 0.0 **** 0.06
8183 H 46.798284822947636 46.82367363915284 59.801020161602764 H 0.0 **** 0.06
8184 H 45.14188855037246 47.09261198451699 60.39449504361602 H 0.0 **** 0.06
8185 H 45.443038648271994 46.90896369975779 58.649861900048336 H 0.0 **** 0.06
8186 C 117.24470732045263 32.33680084256821 28.635379003981882 C 0.0 **** -0.24
8187 H 116.3559557363571 32.42990705351124 28.010367307680923 H 0.0 **** 0.06
8188 H 117.06486234493163 32.817456960129675 29.596216715073723 H 0.0 **** 0.06
8189 H 118.08826867287127 32.81771839421023 28.140586887495772 H 0.0 **** 0.06
8190 H 117.46900919366855 31.280974779015338 28.792308243725415 H 0.0 **** 0.06
8191 C 89.04981215178017 107.39481252005099 9.508984312037999 C 0.0 **** -0.24
8192 H 89.55186784547652 106.4425132353691 9.678072540214 H 0.0 **** 0.06
8193 H 88.03586855228448 107.21203795672228 9.150673499831559 H 0.0 **** 0.06
8194 H 89.60015290373548 107.96853692326901 8.763925910497559 H 0.0 **** 0.06
8195 H 89.00962449666798 107.95476493447995 10.443067782627182 H 0.0 **** 0.06
8196 C 88.30842990265324 30.8775164254954 96.52146446193927 C 0.0 **** -0.24
8197 H 88.51391556601345 30.2133123189291 95.6819996005431 H 0.0 **** 0.06
8198 H 88.86965942768849 30.54353712866849 97.39455551930922 H 0.0 **** 0.06
8199 H 87.24179785199813 30.859891073457675 96.74620463432504 H 0.0 **** 0.06
8200 H 88.60894465195851 31.892734247720583 96.26255644549205 H 0.0 **** 0.06
8201 C 64.95466282260114 90.25838641460622 19.971140708466606 C 0.0 **** -0.24
8202 H 64.76147722562818 89.24274047594466 19.625876523464356 H 0.0 **** 0.06
8203 H 64.0132107064788 90.73543225277949 20.244892289648234 H 0.0 **** 0.06
8204 H 65.4315434387099 90.82891245657991 19.172712412484756 H 0.0 **** 0.06
8205 H 65.61404290391924 90.22846700507178 20.838563583547497 H 0.0 **** 0.06
8206 C 123.66245890268371 108.93179347368863 10.313758355635287 C 0.0 **** -0.24
8207 H 124.52396177506391 108.48141847806119 10.806275202245217 H 0.0 **** 0.06
8208 H 123.7896625748397 108.87106101940282 9.232286870066673 H 0.0 **** 0.06
8209 H 123.57984088411227 109.97677074246928 10.612050931148133 H 0.0 **** 0.06
8210 H 122.75834336499268 108.39793055133083 10.604748266919216 H 0.0 **** 0.06
8211 C 74.11098916949231 29.82985872913561 99.51134661689265 C 0.0 **** -0.24
8212 H 73.80969026763903 28.792737864386325 99.66022581473835 H 0.0 **** 0.06
8213 H 73.2737929195653 30.396160660169556 99.10422473293801 H 0.0 **** 0.06
8214 H 74.94915428149588 29.86843478726604 98.81566865038627 H 0.0 **** 0.06
8215 H 74.41195788208954 30.260594079671876 100.466416042658 H 0.0 **** 0.06
8216 C 33.71425642542991 117.92643297516062 72.82180858143539 C 0.0 **** -0.24
8217 H 33.18155409448806 117.05776417019635 73.21008747012128 H 0.0 **** 0.06
8218 H 34.77104668096022 117.6829866823971 72.7076463321279 H 0.0 **** 0.06
8219 H 33.60700472696483 118.75878568220466 73.51795353457875 H 0.0 **** 0.06
8220 H 33.2978585609312 118.20583427246599 71.85465793521576 H 0.0 **** 0.06
8221 C 88.5335935532407 84.04919023703317 116.89528764521701 C 0.0 **** -0.24
8222 H 89.01780372207901 83.5046533791277 117.70573863953908 H 0.0 **** 0.06
8223 H 89.16951114746584 84.87859488100926 116.58509177223553 H 0.0 **** 0.06
8224 H 87.57410561091066 84.43519209873266 117.23998196755018 H 0.0 **** 0.06
8225 H 88.37405097167928 83.37898923535144 116.05092903642354 H 0.0 **** 0.06
8226 C 92.22765633539782 109.7424050262345 81.45196872644782 C 0.0 **** -0.24
8227 H 93.19221176087973 109.32735988711669 81.74261458867758 H 0.0 **** 0.06
8228 H 91.96504744283754 110.55786173469053 82.12530340615709 H 0.0 **** 0.06
8229 H 91.46645220721368 108.96403740883441 81.50820797572261 H 0.0 **** 0.06
8230 H 92.28625011899831 110.11855469043083 80.43023346397067 H 0.0 **** 0.06
8231 C 38.81701193153879 105.5465993612324 34.389762770598225 C 0.0 **** -0.24
8232 H 38.53840108974043 104.67699630854356 34.985218270737334 H 0.0 **** 0.06
8233 H 38.17353026748091 106.3867227021391 34.65146267718359 H 0.0 **** 0.06
8234 H 38.70080510037286 105.31510116038005 33.330999689937286 H 0.0 **** 0.06
8235 H 39.856014782537926 105.80792325843022 34.592547504436794 H 0.0 **** 0.06
8236 C 30.38129717131332 74.70564919079658 121.44777283323859 C 0.0 **** -0.24
8237 H 31.354560726063056 74.84807243977316 121.91682757203039 H 0.0 **** 0.06
8238 H 29.661766201314492 74.37385081655339 122.19710506534945 H 0.0 **** 0.06
8239 H 30.462832602932878 73.95298842370649 120.66372727469377 H 0.0 **** 0.06
8240 H 30.045373818078673 75.64714179935253 121.01395623506633 H 0.0 **** 0.06
8241 C 42.91205453185937 34.780670045859246 74.55767314414021 C 0.0 **** -0.24
8242 H 42.681920541741874 35.49218452404615 75.35054778003214 H 0.0 **** 0.06
8243 H 42.480045203029505 33.80984724801637 74.80477808942756 H 0.0 **** 0.06
8244 H 43.99317055260802 34.682763514896486 74.46182357357054 H 0.0 **** 0.06
8245 H 42.49341938879937 35.13707512933669 73.6165813678058 H 0.0 **** 0.06
8246 C 41.7436416605085 54.33980618094935 59.42434539211705 C 0.0 **** -0.24
8247 H 41.4429945292957 53.72595388943715 60.27344513748591 H 0.0 **** 0.06
8248 H 42.49301141511057 55.063174353913965 59.74755465478977 H 0.0 **** 0.06
8249 H 40.875068958350596 54.86660233656558 59.03047749178488 H 0.0 **** 0.06
8250 H 42.166556839315916 53.70224683742053 58.64765074914466 H 0.0 **** 0.06
8251 C 4.13075112408923 91.03026511386325 56.57765628511822 C 0.0 **** -0.24
8252 H 4.253740941009269 91.42545131123069 57.585689541184365 H 0.0 **** 0.06
8253 H 3.358322187334384 90.25915804200696 56.58216166680387 H 0.0 **** 0.06
8254 H 5.072463034446422 90.59884576349954 56.23956504985472 H 0.0 **** 0.06
8255 H 3.837132812950035 91.83541385811093 55.90475402652066 H 0.0 **** 0.06
8256 C 55.77515702642194 95.33128120450255 76.30332865509314 C 0.0 **** -0.24
8257 H 56.25851666244432 94.36906222840526 76.13116051865433 H 0.0 **** 0.06
8258 H 54.76740093990912 95.30931138069198 75.88729529156058 H 0.0 **** 0.06
8259 H 56.351954171401815 96.11910835827766 75.81883393237251 H 0.0 **** 0.06
8260 H 55.72316447870389 95.52490244634822 77.37394539610926 H 0.0 **** 0.06
8261 C 34.578154738197554 93.73197120700479 84.21905931665486 C 0.0 **** -0.24
8262 H 34.7720659414876 94.78550493991375 84.42072446326407 H 0.0 **** 0.06
8263 H 34.23239533018614 93.61653997373786 83.19193140031322 H 0.0 **** 0.06
8264 H 33.81256522728563 93.3664751706692 84.90465915930773 H 0.0 **** 0.06
8265 H 35.495988751306015 93.16085527993164 84.36149551648799 H 0.0 **** 0.06
8266 C 1.195073971650885 46.15278927372876 89.33447323184947 C 0.0 **** -0.24
8267 H 0.717891284522679 45.18930367745198 89.5140892247552 H 0.0 **** 0.06
8268 H 1.2915676170653114 46.31595091770775 88.26046390576624 H 0.0 **** 0.06
8269 H 2.18381610834183 46.15823548080767 89.79360725517978 H 0.0 **** 0.06
8270 H 0.5871284582783005 46.94595811983976 89.76999379044568 H 0.0 **** 0.06
8271 C 43.05066003759015 47.59510861256291 96.29990323276542 C 0.0 **** -0.24
8272 H 42.117135827991376 48.15719049724379 96.27520085811783 H 0.0 **** 0.06
8273 H 42.894916149293294 46.61228008125147 95.85224626527386 H 0.0 **** 0.06
8274 H 43.37641879214783 47.47664389203766 97.3328277200168 H 0.0 **** 0.06
8275 H 43.81376406057478 48.13387786095137 95.7377131546462 H 0.0 **** 0.06
8276 C 14.975669704771896 106.33989932681841 56.055902834233606 C 0.0 **** -0.24
8277 H 15.371391771837164 107.34788522584397 56.17414453662302 H 0.0 **** 0.06
8278 H 14.056456033778705 106.24056069323426 56.63389575170574 H 0.0 **** 0.06
8279 H 15.709676953907934 105.61755547261347 56.41397748718579 H 0.0 **** 0.06
8280 H 14.76521682951942 106.15314532486893 55.00293264139853 H 0.0 **** 0.06
8281 C 70.99244035810418 40.70452146424431 14.029910393500352 C 0.0 **** -0.24
8282 H 69.99254354400647 40.29526130955287 13.881501300436955 H 0.0 **** 0.06
8283 H 71.68526034944735 40.23017069824641 13.333413713380978 H 0.0 **** 0.06
8284 H 71.3165322498549 40.511147731756864 15.052536306134876 H 0.0 **** 0.06
8285 H 70.97488966155981 41.77918853166639 13.849878871505464 H 0.0 **** 0.06
8286 C 1.5667679472162632 31.613841429305324 42.05938173028886 C 0.0 **** -0.24
8287 H 2.1382742445366887 31.198571882928263 42.8892880186753 H 0.0 **** 0.06
8288 H 0.8647094296218683 32.35729884768688 42.43712055894874 H 0.0 **** 0.06
8289 H 1.0167571321768065 30.81499095073653 41.561085864399935 H 0.0 **** 0.06
8290 H 2.247155558341092 32.08449151266447 41.34904803860657 H 0.0 **** 0.06
8291 C 113.2793503221653 30.927002068951452 88.79793234245358 C 0.0 **** -0.24
8292 H 112.342076349071 30.373360247758782 88.84823054964805 H 0.0 **** 0.06
8293 H 113.85646122487088 30.745975143091833 89.70531595622953 H 0.0 **** 0.06
8294 H 113.06676423747803 31.992698701488443 88.70814037566385 H 0.0 **** 0.06
8295 H 113.85086114562537 30.596195991470807 87.93159733569739 H 0.0 **** 0.06
8296 C 20.45944587777585 54.89982994868126 90.121935864112 C 0.0 **** -0.24
8297 H 20.64190678694314 55.92810854520664 90.43341753037035 H 0.0 **** 0.06
8298 H 20.97944479333077 54.7072477728876 89.18258181191297 H 0.0 **** 0.06
8299 H 19.389201053962864 54.74640346592554 89.98383070478735 H 0.0 **** 0.06
8300 H 20.828459483334385 54.21687901144114 90.88807734045147 H 0.0 **** 0.06
8301 C 14.233985924877942 107.33451321740947 16.721159029105348 C 0.0 **** -0.24
8302 H 14.358002549202638 106.49643974825136 16.03463627228281 H 0.0 **** 0.06
8303 H 15.172744697686682 107.88313473738224 16.796730809398138 H 0.0 **** 0.06
8304 H 13.951233576462442 106.95969180354129 17.70450316361533 H 0.0 **** 0.06
8305 H 13.454284225989568 107.99772588273315 16.346823727275964 H 0.0 **** 0.06
8306 C 69.65124123528369 79.831534839771 43.938397115654624 C 0.0 **** -0.24
8307 H 70.54771329798314 79.21459539702622 43.991812653554035 H 0.0 **** 0.06
8308 H 69.56539208989778 80.26189934790462 42.940634607817884 H 0.0 **** 0.06
8309 H 69.71730448788202 80.6326412510617 44.67539367990196 H 0.0 **** 0.06
8310 H 68.77485125117659 79.21746095284844 44.14658593604368 H 0.0 **** 0.06
8311 C 54.221436036982084 107.3516527152243 57.93422805288667 C 0.0 **** -0.24
8312 H 54.4705311523702 106.29892460541271 57.798475004501384 H 0.0 **** 0.06
8313 H 53.181832923809736 107.44128015207588 58.251221839162085 H 0.0 **** 0.06
8314 H 54.36253928707691 107.8824154253154 56.99309656102024 H 0.0 **** 0.06
8315 H 54.87191407849002 107.78332734661979 58.695964964996605 H 0.0 **** 0.06
8316 C 24.708524474262617 46.42322725479164 53.691987984974446 C 0.0 **** -0.24
8317 H 24.63898945388928 47.20276940421627 52.93312986877518 H 0.0 **** 0.06
8318 H 23.954406101620464 46.59554176117592 54.46011747566982 H 0.0 **** 0.06
8319 H 25.700231451901516 46.44437673113515 54.14413806133237 H 0.0 **** 0.06
8320 H 24.541130362955357 45.451038442565164 53.22961933280524 H 0.0 **** 0.06
8321 C 37.91249127572668 57.63596392315472 71.9557719875213 C 0.0 **** -0.24
8322 H 38.05158399185616 57.94034589257254 72.99375204972677 H 0.0 **** 0.06
8323 H 38.885730277987165 57.48973644492128 71.48772385787805 H 0.0 **** 0.06
8324 H 37.3641351156982 58.41090795581731 71.42060383624101 H 0.0 **** 0.06
8325 H 37.34974588672372 56.70306551034841 71.92286479101784 H 0.0 **** 0.06
8326 C 68.5765674314442 55.68576366049359 8.947739741495411 C 0.0 **** -0.24
8327 H 69.63438090212307 55.87427839065997 9.129075139601895 H 0.0 **** 0.06
8328 H 68.44307868058613 54.65591390210369 8.615735277288394 H 0.0 **** 0.06
8329 H 68.21241221491206 56.3654361164013 8.1783023123769 H 0.0 **** 0.06
8330 H 68.0162342584961 55.84569635544719 9.869253718392457 H 0.0 **** 0.06
8331 C 113.5772978582851 100.25077827405315 41.365370024272295 C 0.0 **** -0.24
8332 H 114.27776836791702 99.44165339317759 41.15578290183913 H 0.0 **** 0.06
8333 H 112.96129732243014 100.43348176300688 40.48473871934243 H 0.0 **** 0.06
8334 H 114.1320306923881 101.15468088711347 41.61590590114457 H 0.0 **** 0.06
8335 H 112.94008220684151 99.97086518709646 42.203985884648375 H 0.0 **** 0.06
8336 C 104.65251678994878 71.27861373290307 41.06040049966195 C 0.0 **** -0.24
8337 H 103.82234229990638 71.9700734014205 41.20860850437954 H 0.0 **** 0.06
8338 H 105.13071096556405 71.48485774601329 40.102597560211905 H 0.0 **** 0.06
8339 H 104.2770193867716 70.25559085693578 41.06593004123434 H 0.0 **** 0.06
8340 H 105.37802872252144 71.40471113427736 41.8637376407101 H 0.0 **** 0.06
8341 C 35.89747376093672 81.84102235849677 119.13831050507235 C 0.0 **** -0.24
8342 H 36.8444983285174 81.61810439045404 119.63011714604858 H 0.0 **** 0.06
8343 H 35.63601452942672 82.88487562900183 119.31010717246474 H 0.0 **** 0.06
8344 H 35.116938705310105 81.19843060702894 119.54694558760761 H 0.0 **** 0.06
8345 H 35.99341744373666 81.66078197640174 118.06818254303195 H 0.0 **** 0.06
8346 C 61.79488940375879 54.30090271671429 24.93830246801889 C 0.0 **** -0.24
8347 H 62.22833717702724 54.31750695047728 25.937775319331934 H 0.0 **** 0.06
8348 H 62.229849972191985 55.102399014527066 24.340601259403968 H 0.0 **** 0.06
8349 H 60.716383652039056 54.442613983852794 25.006975318424224 H 0.0 **** 0.06
8350 H 62.00522712032216 53.34022311484827 24.467422975975467 H 0.0 **** 0.06
8351 C 93.26177213680127 91.96316228557637 105.19522146488265 C 0.0 **** -0.24
8352 H 92.31508715878917 92.03213587852537 105.73130906662696 H 0.0 **** 0.06
8353 H 93.21945476511138 91.13292370709246 104.48926613860606 H 0.0 **** 0.06
8354 H 94.07068775461636 91.79495295497969 105.90606240515928 H 0.0 **** 0.06
8355 H 93.44126345050881 92.89185789594941 104.65444610807003 H 0.0 **** 0.06
8356 C 22.989904221120014 98.76466487844112 34.168336197451794 C 0.0 **** -0.24
8357 H 22.87305899398183 99.83764199853593 34.01578454981154 H 0.0 **** 0.06
8358 H 23.977293206493755 98.45424512266996 33.82351684444083 H 0.0 **** 0.06
8359 H 22.224508511658655 98.23163705846616 33.606005018979886 H 0.0 **** 0.06
8360 H 22.88683641179273 98.53597768653009 35.22901988967013 H 0.0 **** 0.06
8361 C 80.41662043878881 15.211388472722433 109.5033124596394 C 0.0 **** -0.24
8362 H 80.26030347601665 16.27690780187811 109.3386940916078 H 0.0 **** 0.06
8363 H 80.08151740554896 14.945003490888553 110.50650675229569 H 0.0 **** 0.06
8364 H 81.47669522112693 14.980371920137827 109.4003828966717 H 0.0 **** 0.06
8365 H 79.84727151790804 14.64268008406475 108.76725447963311 H 0.0 **** 0.06
8366 C 78.4203996660256 98.88717431800657 109.58492526722463 C 0.0 **** -0.24
8367 H 78.02746502074305 99.83723909994538 109.94764693426909 H 0.0 **** 0.06
8368 H 78.14224493325166 98.09228355242104 110.27743401037633 H 0.0 **** 0.06
8369 H 79.50672178801463 98.9466776696706 109.51574924100503 H 0.0 **** 0.06
8370 H 78.00469933266311 98.67425344375911 108.6005129586132 H 0.0 **** 0.06
8371 C 99.37974942391642 61.01008709263749 100.70557118941439 C 0.0 **** -0.24
8372 H 98.85719980625757 61.72609684635353 100.07082347168004 H 0.0 **** 0.06
8373 H 100.16147102729587 61.52386010813825 101.26462065307321 H 0.0 **** 0.06
8374 H 99.8268415267951 60.23319334745588 100.08531521719394 H 0.0 **** 0.06
8375 H 98.67158717504392 60.558051966385335 101.40070803313645 H 0.0 **** 0.06
8376 C 25.226538331587648 55.289596766300406 98.70785520501599 C 0.0 **** -0.24
8377 H 25.075031195515095 56.270890863021975 98.25638950651046 H 0.0 **** 0.06
8378 H 25.336266020300386 55.399361849716456 99.78715878379685 H 0.0 **** 0.06
8379 H 26.128163003886726 54.8362748623868 98.29418143666436 H 0.0 **** 0.06
8380 H 24.36882559891029 54.65422790605919 98.49173052347652 H 0.0 **** 0.06
8381 C 2.531077190470228 115.1097980544458 8.339979263370253 C 0.0 **** -0.24
8382 H 2.371107676181623 114.05465748269845 8.119432656192544 H 0.0 **** 0.06
8383 H 1.9931595972419132 115.71842195533304 7.612363721871702 H 0.0 **** 0.06
8384 H 3.5961111875860183 115.33422865574698 8.287375447990087 H 0.0 **** 0.06
8385 H 2.1616479287415586 115.33026321895211 9.342524000636615 H 0.0 **** 0.06
8386 C 53.537766674769614 16.59413717006356 109.0810019622543 C 0.0 **** -0.24
8387 H 53.71899914862104 15.891548528113617 109.89427724556413 H 0.0 **** 0.06
8388 H 54.44559072754831 17.167684292987303 108.88893948492986 H 0.0 **** 0.06
8389 H 52.73106697097579 17.272034363221678 109.35929618054277 H 0.0 **** 0.06
8390 H 53.25747133983283 16.04490376609118 108.18227458913694 H 0.0 **** 0.06
8391 C 98.45159376392337 122.40247205220524 74.86905128630703 C 0.0 **** -0.24
8392 H 97.97178174513874 121.90046253195982 75.71008377908292 H 0.0 **** 0.06
8393 H 99.41173982302394 122.80865991006264 75.1879206956452 H 0.0 **** 0.06
8394 H 97.81281751308023 123.21215510438833 74.51772820568111 H 0.0 **** 0.06
8395 H 98.60955247354565 121.68698349913097 74.06223850226998 H 0.0 **** 0.06
8396 C 95.41624026767968 67.69239804395168 105.98664498067726 C 0.0 **** -0.24
8397 H 96.14895538497659 68.36815062950876 105.54512745470794 H 0.0 **** 0.06
8398 H 94.64474954820088 68.27351722758418 106.49140655674682 H 0.0 **** 0.06
8399 H 95.91069587100644 67.04058363689646 106.70624507260567 H 0.0 **** 0.06
8400 H 94.96142130543186 67.08815645405203 105.20190521321135 H 0.0 **** 0.06
8401 C 40.038996201874575 1.2990574446341014 45.686144515592105 C 0.0 **** -0.24
8402 H 39.055871003836465 1.4187529401773276 46.14184898479638 H 0.0 **** 0.06
8403 H 40.664434059447245 0.6800936337157424 46.3293435425839 H 0.0 **** 0.06
8404 H 40.50243358483048 2.2781483812398875 45.56116657428734 H 0.0 **** 0.06
8405 H 39.93224309600226 0.8209481525177011 44.71324786075331 H 0.0 **** 0.06
8406 C 10.63903727513457 87.43468893797255 5.891636838596323 C 0.0 **** -0.24
8407 H 11.091795947016237 88.35652654671921 5.527807669958474 H 0.0 **** 0.06
8408 H 11.272728257986103 86.99772896936726 6.662424975031708 H 0.0 **** 0.06
8409 H 10.533640051714599 86.7318120105389 5.065673087897974 H 0.0 **** 0.06
8410 H 9.656048815823624 87.6530813409498 6.309593993811159 H 0.0 **** 0.06
8411 C 28.908397078547736 68.32621618270488 87.98732298301636 C 0.0 **** -0.24
8412 H 29.812188388768007 68.61263442995055 88.52377100886218 H 0.0 **** 0.06
8413 H 29.050627147159133 67.34600764441733 87.5337191184035 H 0.0 **** 0.06
8414 H 28.698884327717906 69.06041607080292 87.20975523075379 H 0.0 **** 0.06
8415 H 28.070132457322508 68.28596252053559 88.68374730737371 H 0.0 **** 0.06
8416 C 105.91365351674526 53.1511179738979 41.00317099929552 C 0.0 **** -0.24
8417 H 106.31217206326072 52.5978639015118 40.152441526562825 H 0.0 **** 0.06
8418 H 105.20201688225191 53.89727127058647 40.649338723165584 H 0.0 **** 0.06
8419 H 106.72870350719094 53.64676436284822 41.5281174155044 H 0.0 **** 0.06
8420 H 105.41049583116803 52.46162308538159 41.68088984731028 H 0.0 **** 0.06
8421 C 56.68108669542403 65.96334218710452 36.30632934467533 C 0.0 **** -0.24
8422 H 56.960305509876605 65.02256846564838 35.83218342697097 H 0.0 **** 0.06
8423 H 56.230498408758265 65.76057742441542 37.27815308376523 H 0.0 **** 0.06
8424 H 55.963481783674055 66.4891407269873 35.67590105072185 H 0.0 **** 0.06
8425 H 57.56896807262369 66.58101642991168 36.438184760383734 H 0.0 **** 0.06
8426 C 38.11688736249633 4.0731707395951915 101.67340081010421 C 0.0 **** -0.24
8427 H 38.16579553893027 4.733854936839986 100.80727718122178 H 0.0 **** 0.06
8428 H 37.41496437118863 4.481223357764662 102.40132383782127 H 0.0 **** 0.06
8429 H 39.10511421446026 3.9936475331493604 102.12580375880893 H 0.0 **** 0.06
8430 H 37.7811011850298 3.085079926871339 101.35735185498861 H 0.0 **** 0.06
8431 C 106.83147672003352 60.44405936945134 22.458602053724007 C 0.0 **** -0.24
8432 H 106.31525502834725 61.32640619634182 22.83646569718325 H 0.0 **** 0.06
8433 H 106.34606622870803 60.104747532647366 21.54298374156769 H 0.0 **** 0.06
8434 H 106.79160761946439 59.6518679871086 23.20629248480884 H 0.0 **** 0.06
8435 H 107.87079990078551 60.69501348352162 22.247654092264682 H 0.0 **** 0.06
8436 C 74.32573833823739 68.82447840081883 34.979151409362345 C 0.0 **** -0.24
8437 H 74.2776974357447 69.01039381399126 33.90644492134348 H 0.0 **** 0.06
8438 H 73.42276939160485 69.20890130277235 35.45501578101266 H 0.0 **** 0.06
8439 H 75.19842074398997 69.32725244396096 35.39607273460365 H 0.0 **** 0.06
8440 H 74.40322681870799 67.75187411924206 35.1588771288406 H 0.0 **** 0.06
8441 C 13.034160812665846 42.057605307408494 91.59391367173846 C 0.0 **** -0.24
8442 H 13.395730140042872 42.78632741121854 92.31892428323641 H 0.0 **** 0.06
8443 H 12.044862381188494 41.70900381012842 91.89234017938047 H 0.0 **** 0.06
8444 H 13.72119997561009 41.211799448749105 91.55653208638324 H 0.0 **** 0.06
8445 H 12.975262478267354 42.52246762954539 90.61012829014064 H 0.0 **** 0.06
8446 C 57.449608347542295 99.14032072366204 123.37379849485222 C 0.0 **** -0.24
8447 H 56.99241504885114 99.07283818038526 122.38630614844938 H 0.0 **** 0.06
8448 H 56.67277409631993 99.09115460213678 124.13691575509955 H 0.0 **** 0.06
8449 H 57.9869151033831 100.08563316395457 123.46062960293429 H 0.0 **** 0.06
8450 H 58.14558098123965 98.31298132017425 123.50839512077255 H 0.0 **** 0.06
8451 C 88.38569167396716 71.80618792057265 14.23902742742402 C 0.0 **** -0.24
8452 H 88.82535112206037 72.23724115181417 15.138778736668428 H 0.0 **** 0.06
8453 H 88.53474701026983 72.4867209565025 13.400512657479538 H 0.0 **** 0.06
8454 H 87.31753298979751 71.65104369518869 14.395168620226485 H 0.0 **** 0.06
8455 H 88.86319195208716 70.85119711750417 14.023104573336013 H 0.0 **** 0.06
8456 C 118.90526791263326 39.74636024417825 67.73798882498343 C 0.0 **** -0.24
8457 H 118.39388313103251 40.274011569225365 68.54390722211153 H 0.0 **** 0.06
8458 H 119.80330416829912 40.296293032345964 67.45633384876444 H 0.0 **** 0.06
8459 H 118.24129342014174 39.66702090565233 66.87823784089929 H 0.0 **** 0.06
8460 H 119.18158877805553 38.74793559674783 68.0769352943822 H 0.0 **** 0.06
8461 C 89.70183476933002 101.87871261555233 120.8773604086891 C 0.0 **** -0.24
8462 H 88.83307689714539 101.41129632019977 120.41338681656518 H 0.0 **** 0.06
8463 H 89.37136238108995 102.65462081460669 121.56755179366465 H 0.0 **** 0.06
8464 H 90.3310327650733 102.32217078485115 120.10546504303076 H 0.0 **** 0.06
8465 H 90.27100909373424 101.12504743096133 121.4215139564119 H 0.0 **** 0.06
8466 C 86.24419747984908 53.88697755580162 119.10045661074372 C 0.0 **** -0.24
8467 H 85.52428266173496 54.69377493782707 118.96562594926934 H 0.0 **** 0.06
8468 H 87.25263878680356 54.27096591921455 118.94426182356881 H 0.0 **** 0.06
8469 H 86.04044887598175 53.09484967313212 118.38054718223236 H 0.0 **** 0.06
8470 H 86.15880624979884 53.490385005712824 120.11199028625714 H 0.0 **** 0.06
8471 C 69.03766757495 52.64392631480841 92.60727817260207 C 0.0 **** -0.24
8472 H 68.58247294426909 52.117462251248554 91.76802244400399 H 0.0 **** 0.06
8473 H 69.75369507600914 51.98795631919518 93.10204748533778 H 0.0 **** 0.06
8474 H 68.26267452291856 52.93664224771422 93.31557179268482 H 0.0 **** 0.06
8475 H 69.55108765035746 53.5331212672544 92.24199492882651 H 0.0 **** 0.06
8476 C 14.440935546535172 107.09734601999173 75.60036639868918 C 0.0 **** -0.24
8477 H 15.116280358654919 106.28429716553683 75.86944023455901 H 0.0 **** 0.06
8478 H 13.897674316789391 107.42483162203507 76.48683418110342 H 0.0 **** 0.06
8479 H 13.733309050537699 106.74689940314187 74.8482994639783 H 0.0 **** 0.06
8480 H 15.016940868674126 107.93035660336375 75.1977810962269 H 0.0 **** 0.06
8481 C 95.98188626639231 44.991151148090836 101.21742399485336 C 0.0 **** -0.24
8482 H 96.95113796556666 44.55084296295905 100.98271232216456 H 0.0 **** 0.06
8483 H 95.57907126538711 44.52493633864739 102.1173848889373 H 0.0 **** 0.06
8484 H 95.29681318854713 44.825854382942964 100.38557148832217 H 0.0 **** 0.06
8485 H 96.10038414555612 46.061980887301544 101.3840002500684 H 0.0 **** 0.06
8486 C 116.19544183004507 114.93090948592915 51.89911896352389 C 0.0 **** -0.24
8487 H 115.4985000248191 114.55166226208951 51.15255797710369 H 0.0 **** 0.06
8488 H 115.70551271845304 114.95611281492432 52.87283709619969 H 0.0 **** 0.06
8489 H 116.50986713816968 115.93773299168012 51.62330763459853 H 0.0 **** 0.06
8490 H 117.06763105753058 114.27892256165306 51.947220000456866 H 0.0 **** 0.06
8491 C 36.60995688847055 119.54355149697042 27.29443217420077 C 0.0 **** -0.24
8492 H 36.13199849344423 118.63849191424065 27.66805174184772 H 0.0 **** 0.06
8493 H 35.84876216946148 120.22685225070066 26.91674389921463 H 0.0 **** 0.06
8494 H 37.299025856127145 119.28510362955144 26.490165810581765 H 0.0 **** 0.06
8495 H 37.16121684577615 120.0236450212266 28.10354491345155 H 0.0 **** 0.06
8496 C 116.4712225764585 98.03139078556535 104.10810741963819 C 0.0 **** -0.24
8497 H 116.24177093648433 99.04564570554328 103.78212646365958 H 0.0 **** 0.06
8498 H 116.41507485970442 97.97782954005675 105.19505327853803 H 0.0 **** 0.06
8499 H 117.47731700234473 97.76487690668682 103.78225755080572 H 0.0 **** 0.06
8500 H 115.75214363853705 97.33849267106979 103.67182957257693 H 0.0 **** 0.06
8501 C 66.62191023080936 106.72824346198809 114.02114234881698 C 0.0 **** -0.24
8502 H 66.75315202221725 106.5556919125774 115.08931427131087 H 0.0 **** 0.06
8503 H 67.20504566403775 105.99764588298501 113.46033492817017 H 0.0 **** 0.06
8504 H 66.96073140114476 107.73327814604846 113.77138814787784 H 0.0 **** 0.06
8505 H 65.56753841355072 106.62561104682226 113.76378775915612 H 0.0 **** 0.06
8506 C 3.056018849510224 99.27253219135804 48.34816966508316 C 0.0 **** -0.24
8507 H 2.3180204410991507 99.12491724348666 49.13657240384974 H 0.0 **** 0.06
8508 H 4.053814345769666 99.08338338370885 48.74387356366569 H 0.0 **** 0.06
8509 H 2.9973441012169246 100.29824891225672 47.983581940779914 H 0.0 **** 0.06
8510 H 2.8531968386166113 98.58324567125413 47.528655163082675 H 0.0 **** 0.06
8511 C 92.36028420871673 90.16401539310303 50.50210274334691 C 0.0 **** -0.24
8512 H 91.9541085422515 91.15205000412067 50.285479468435284 H 0.0 **** 0.06
8513 H 93.3877913270224 90.10696125684873 50.14426674849014 H 0.0 **** 0.06
8514 H 91.75700746675494 89.40665265470435 50.00087265835498 H 0.0 **** 0.06
8515 H 92.33869971232826 89.99091629116697 51.57831394351763 H 0.0 **** 0.06
8516 C 49.706678986092754 39.08742106167705 52.3988694292631 C 0.0 **** -0.24
8517 H 50.647935452307934 39.29764801860014 52.9065963145584 H 0.0 **** 0.06
8518 H 49.007961750522725 39.90598242318188 52.57652449050275 H 0.0 **** 0.06
8519 H 49.28587523235953 38.159366892720016 52.78421252342025 H 0.0 **** 0.06
8520 H 49.88561939195742 38.98826970121766 51.3283396378712 H 0.0 **** 0.06
8521 C 80.63637672561116 67.22413899157827 22.72601276416387 C 0.0 **** -0.24
8522 H 81.41272659583714 67.98655455840161 22.790867177334775 H 0.0 **** 0.06
8523 H 79.76334333953479 67.54617519104038 23.294620853688997 H 0.0 **** 0.06
8524 H 81.01277560951286 66.28716744355847 23.136119930839158 H 0.0 **** 0.06
8525 H 80.35746201193106 67.07872135261637 21.68211907733661 H 0.0 **** 0.06
8526 C 45.6427384173613 38.05197801158363 53.93037153824207 C 0.0 **** -0.24
8527 H 45.44321673491805 36.98184408899027 53.8748270349152 H 0.0 **** 0.06
8528 H 46.5176220953891 38.289266079905644 53.32517931811287 H 0.0 **** 0.06
8529 H 45.82916406222532 38.33271580411798 54.966949309401144 H 0.0 **** 0.06
8530 H 44.77966151923688 38.60209023793965 53.55393485850527 H 0.0 **** 0.06
8531 C 120.81796286207262 21.08269066567118 60.83632404232834 C 0.0 **** -0.24
8532 H 120.33884330382824 21.320690168321732 59.88683398299213 H 0.0 **** 0.06
8533 H 121.09355660623831 20.02747333365241 60.850261737550156 H 0.0 **** 0.06
8534 H 120.12782519395157 21.2894840594183 61.653697976054346 H 0.0 **** 0.06
8535 H 121.71357087874527 21.693710187149378 60.953572458402405 H 0.0 **** 0.06
8536 C 30.75352565958528 116.14495298012905 23.20758111501209 C 0.0 **** -0.24
8537 H 31.4357749336219 116.7883477698464 23.76343702753485 H 0.0 **** 0.06
8538 H 29.78905276101571 116.64263605733363 23.104230666825572 H 0.0 **** 0.06
8539 H 30.62282589927017 115.20581381041075 23.744230761986216 H 0.0 **** 0.06
8540 H 31.16748255750943 115.94463384685422 22.21957017655643 H 0.0 **** 0.06
8541 C 5.325643947174658 54.561335724216576 114.23605947598983 C 0.0 **** -0.24
8542 H 4.771498865517664 55.48814819079877 114.38255028107008 H 0.0 **** 0.06
8543 H 6.2541907650498025 54.77309339008178 113.70558777724818 H 0.0 **** 0.06
8544 H 4.72265631331728 53.86617318258243 113.65057869641822 H 0.0 **** 0.06
8545 H 5.553317887064885 54.116998521239225 115.20496955015136 H 0.0 **** 0.06
8546 C 22.685056582744657 108.26569529696127 15.885467949647008 C 0.0 **** -0.24
8547 H 22.685998694936544 109.07986101873404 15.161252541854665 H 0.0 **** 0.06
8548 H 22.117685692379972 107.42502709516934 15.486395345942483 H 0.0 **** 0.06
8549 H 22.227654677043617 108.60676146255098 16.814377574537744 H 0.0 **** 0.06
8550 H 23.711271453178483 107.95286621868634 16.080400659796766 H 0.0 **** 0.06
8551 C 71.20669356503637 100.15656832972203 111.5280896382917 C 0.0 **** -0.24
8552 H 70.95318948616287 99.09894633404807 111.45722998987509 H 0.0 **** 0.06
8553 H 71.91130392092114 100.30732417223315 112.3461566571346 H 0.0 **** 0.06
8554 H 70.30202196261311 100.73538577145646 111.71565935053059 H 0.0 **** 0.06
8555 H 71.65969612992441 100.48474670405781 110.59202158879106 H 0.0 **** 0.06
8556 C 4.2795522629823495 14.9953675836243 11.734842647849348 C 0.0 **** -0.24
8557 H 5.352270578991693 14.969789528813351 11.54275440245118 H 0.0 **** 0.06
8558 H 3.8442743354615345 14.024958757229513 11.492723601547823 H 0.0 **** 0.06
8559 H 3.8180442485564754 15.765709814118225 11.116190917389531 H 0.0 **** 0.06
8560 H 4.10454874660644 15.220872790246943 12.786644368731373 H 0.0 **** 0.06
8561 C 72.06470626074565 41.00571502036564 30.905620073889537 C 0.0 **** -0.24
8562 H 73.09204333220848 41.00925905595278 30.544882562051896 H 0.0 **** 0.06
8563 H 71.97401059753506 40.306090621172316 31.73694115561176 H 0.0 **** 0.06
8564 H 71.39717583280893 40.69978010857424 30.09955263912869 H 0.0 **** 0.06
8565 H 71.79360002091536 42.00630947364138 31.24112686711277 H 0.0 **** 0.06
8566 C 36.87197562144203 25.28619192176609 48.74452605551629 C 0.0 **** -0.24
8567 H 37.09285555169583 24.228888879113185 48.89215755394676 H 0.0 **** 0.06
8568 H 36.286625636431054 25.410386777516266 47.8331519446768 H 0.0 **** 0.06
8569 H 37.80495217529606 25.84363923707062 48.65616884981708 H 0.0 **** 0.06
8570 H 36.30373536291143 25.660818867795484 49.59569839255954 H 0.0 **** 0.06
8571 C 13.116032087633727 17.184342900337185 106.69552127910998 C 0.0 **** -0.24
8572 H 12.043920704442115 17.34599414156139 106.58416259114739 H 0.0 **** 0.06
8573 H 13.35850007573768 16.157090599994717 106.42524986242671 H 0.0 **** 0.06
8574 H 13.405022339549731 17.366329370394737 107.73073298525964 H 0.0 **** 0.06
8575 H 13.656295757679374 17.870139172850713 106.04223773148595 H 0.0 **** 0.06
8576 C 51.07283043571377 15.365602636368735 47.70292820522738 C 0.0 **** -0.24
8577 H 51.863515842328255 15.851091527982533 47.13139535367755 H 0.0 **** 0.06
8578 H 51.42208151980716 15.179807454765836 48.71959316731338 H 0.0 **** 0.06
8579 H 50.80995638061228 14.420035437420779 47.230308349209324 H 0.0 **** 0.06
8580 H 50.19597719293527 16.013552855629115 47.7325709245232 H 0.0 **** 0.06
8581 C 94.14230270487252 13.36576277561187 78.44683067111977 C 0.0 **** -0.24
8582 H 93.60546712263016 12.43254506146377 78.61780427830608 H 0.0 **** 0.06
8583 H 95.20931975800559 13.205989546934688 78.60788635123023 H 0.0 **** 0.06
8584 H 93.77939260685247 14.125366052776258 79.13858046819371 H 0.0 **** 0.06
8585 H 93.97546365217266 13.697781234769877 77.42208280726206 H 0.0 **** 0.06
8586 C 112.4375095707858 70.64769650908322 26.806289941345568 C 0.0 **** -0.24
8587 H 111.55633591884629 71.288831073107 26.79873051885116 H 0.0 **** 0.06
8588 H 112.84757006638682 70.60669319078384 27.81563222804877 H 0.0 **** 0.06
8589 H 113.18656124089105 71.0520848294086 26.125278631529085 H 0.0 **** 0.06
8590 H 112.1587853685167 69.64379325354251 26.48557231799512 H 0.0 **** 0.06
8591 C 27.91610866552199 62.8783362267462 15.92432396469124 C 0.0 **** -0.24
8592 H 28.65698265265506 63.576477853725876 15.536664798588191 H 0.0 **** 0.06
8593 H 27.53282693693874 63.246253726449766 16.87704828797459 H 0.0 **** 0.06
8594 H 28.37865761240353 61.90277275023915 16.07090169700436 H 0.0 **** 0.06
8595 H 27.094610938493865 62.78799982502386 15.213047948929074 H 0.0 **** 0.06
8596 C 37.82345729309834 99.80223527214748 110.07549643977711 C 0.0 **** -0.24
8597 H 38.58854904215775 99.24405323560374 109.53471071024455 H 0.0 **** 0.06
8598 H 37.66008467177497 99.34363044469414 111.04993813758477 H 0.0 **** 0.06
8599 H 36.893823306437895 99.7885690841536 109.50623058544232 H 0.0 **** 0.06
8600 H 38.15290865101621 100.83297480781785 110.20770664222232 H 0.0 **** 0.06
8601 C 49.16003844996817 63.718151451175544 40.10539034276448 C 0.0 **** -0.24
8602 H 48.86881782236088 64.37581840632984 40.9253205292039 H 0.0 **** 0.06
8603 H 48.41257364363494 63.77158849701442 39.31460940743918 H 0.0 **** 0.06
8604 H 49.23091747376529 62.69318930742847 40.469935942604195 H 0.0 **** 0.06
8605 H 50.12758293910102 64.03239463614614 39.71482337865507 H 0.0 **** 0.06
8606 C 3.0257035726982053 26.170210749337258 91.06985045705437 C 0.0 **** -0.24
8607 H 3.994049263961017 26.399910219129907 90.62495327993868 H 0.0 **** 0.06
8608 H 3.166388830896821 25.514599446588193 91.9284435592247 H 0.0 **** 0.06
8609 H 2.395243241427224 25.67330400676977 90.33197769893025 H 0.0 **** 0.06
8610 H 2.546564065672527 27.09429892469086 91.39259038502595 H 0.0 **** 0.06
8611 C 107.80189200510438 31.785616158795534 7.364720034569729 C 0.0 **** -0.24
8612 H 107.75266392708754 32.806034193461386 6.984541992348738 H 0.0 **** 0.06
8613 H 108.84358709903029 31.47230336521335 7.431316668807881 H 0.0 **** 0.06
8614 H 107.2638569427685 31.121327633736826 6.689777342150336 H 0.0 **** 0.06
8615 H 107.34655226114691 31.745796694760372 8.35472502680193 H 0.0 **** 0.06
8616 C 12.184038525310346 38.095468130881244 121.91068715628259 C 0.0 **** -0.24
8617 H 12.529107986233832 38.05668967893503 120.87835585849297 H 0.0 **** 0.06
8618 H 11.09463855616232 38.06775015222466 121.93149874237363 H 0.0 **** 0.06
8619 H 12.533169563199394 39.0179239448441 122.37565440834842 H 0.0 **** 0.06
8620 H 12.579915797979737 37.239750517263786 122.45935678371825 H 0.0 **** 0.06
8621 C 53.12184657565655 120.3653859560001 4.446974346548615 C 0.0 **** -0.24
8622 H 53.74423635546242 120.33279468598607 5.341380011636971 H 0.0 **** 0.06
8623 H 52.0800256530062 120.19998147240244 4.723002015360663 H 0.0 **** 0.06
8624 H 53.442137630506636 119.58738828498826 3.754027041232405 H 0.0 **** 0.06
8625 H 53.22128173033025 121.34044233754065 3.9693013967539343 H 0.0 **** 0.06
8626 C 44.90632972670545 94.42733490890039 72.37431320375671 C 0.0 **** -0.24
8627 H 43.952250101967536 93.90403522802502 72.42008567377232 H 0.0 **** 0.06
8628 H 45.6832681659711 93.73779239057248 72.04216029448057 H 0.0 **** 0.06
8629 H 45.15897099705751 94.81063646983274 73.36325306222946 H 0.0 **** 0.06
8630 H 44.83186395572389 95.2573853380859 71.67093499566394 H 0.0 **** 0.06
8631 C 28.976231416584795 39.764930984063255 81.1941403327159 C 0.0 **** -0.24
8632 H 29.310976650509787 38.90399779790101 81.77208266562599 H 0.0 **** 0.06
8633 H 27.92390776740362 39.642864009155346 80.93742199921371 H 0.0 **** 0.06
8634 H 29.566932911549458 39.841049896170205 80.28164029253912 H 0.0 **** 0.06
8635 H 29.104480874362423 40.67088311779818 81.785919410872 H 0.0 **** 0.06
8636 C 40.790989327262615 94.18876607664686 1.6237008201140668 C 0.0 **** -0.24
8637 H 40.82507731791893 93.1481974722027 1.3002742915369652 H 0.0 **** 0.06
8638 H 41.60730630094079 94.37931007106249 2.3201950948242143 H 0.0 **** 0.06
8639 H 39.838229430285864 94.38372720627257 2.1170804931330736 H 0.0 **** 0.06
8640 H 40.891860291439286 94.84191170447895 0.7569069895695861 H 0.0 **** 0.06
8641 C 59.27127078809961 82.547739750566 33.87894295716359 C 0.0 **** -0.24
8642 H 59.743873904647714 81.64056082721629 33.5034028629141 H 0.0 **** 0.06
8643 H 60.02749112297022 83.19322099188537 34.325905471692124 H 0.0 **** 0.06
8644 H 58.526607815759334 82.2836604803515 34.630610414260445 H 0.0 **** 0.06
8645 H 58.78569287593862 83.07211936351615 33.05604939801512 H 0.0 **** 0.06
8646 C 112.32074569391017 105.76889049858381 0.9335632408586321 C 0.0 **** -0.24
8647 H 113.02886839350234 106.06296715787853 0.15838203199422196 H 0.0 **** 0.06
8648 H 111.31153939306583 105.76554343908495 0.5199399502812696 H 0.0 **** 0.06
8649 H 112.3733103726519 106.47745013746643 1.7596388139626242 H 0.0 **** 0.06
8650 H 112.57001307615417 104.77147982899758 1.2938608460677017 H 0.0 **** 0.06
8651 C 58.854068264164724 70.95788206328871 7.637508405952431 C 0.0 **** -0.24
8652 H 58.649125460899484 71.75013324883508 8.35870276509911 H 0.0 **** 0.06
8653 H 58.68094623401767 71.33221482315997 6.628666772440539 H 0.0 **** 0.06
8654 H 58.19500478532916 70.1123772356172 7.83016751141281 H 0.0 **** 0.06
8655 H 59.891979847610926 70.63958920370658 7.734868072781353 H 0.0 **** 0.06
8656 C 56.163037544262195 94.13609585338315 24.534900277700785 C 0.0 **** -0.24
8657 H 56.74831006513456 94.87912725411256 23.992473174866134 H 0.0 **** 0.06
8658 H 55.108673361153535 94.41211091624605 24.505242291976806 H 0.0 **** 0.06
8659 H 56.49987794433889 94.0941962910115 25.571314165403827 H 0.0 **** 0.06
8660 H 56.29653728663871 93.15882193231046 24.06991935099829 H 0.0 **** 0.06
8661 C 15.737222981391987 101.13517450246212 89.76302525074962 C 0.0 **** -0.24
8662 H 15.725716641776796 100.79546553855408 90.79948326774633 H 0.0 **** 0.06
8663 H 16.18929717691841 100.36770965019213 89.13500350566639 H 0.0 **** 0.06
8664 H 16.317881355146906 102.05465542643884 89.69022154093892 H 0.0 **** 0.06
8665 H 14.716226205108832 101.32326947569112 89.43195194385905 H 0.0 **** 0.06
8666 C 101.35216365316487 86.97202984131395 29.622606229281047 C 0.0 **** -0.24
8667 H 102.3916943371849 86.76841770671311 29.879767207378933 H 0.0 **** 0.06
8668 H 100.70457728534362 86.63874484031165 30.434376998628977 H 0.0 **** 0.06
8669 H 101.09314783299854 86.43852044469742 28.707637225485172 H 0.0 **** 0.06
8670 H 101.21955968972796 88.04231007390345 29.467706052635435 H 0.0 **** 0.06
8671 C 42.97415237778212 58.90522755855295 44.543864986657326 C 0.0 **** -0.24
8672 H 43.47806512382623 58.28009735749373 45.28205667298167 H 0.0 **** 0.06
8673 H 43.1747592524266 58.51986731069036 43.54408547140187 H 0.0 **** 0.06
8674 H 43.344579862694395 59.92794331594969 44.6206094722572 H 0.0 **** 0.06
8675 H 41.90071534695488 58.89282746528032 44.730629123104734 H 0.0 **** 0.06
8676 C 116.66560760436374 114.56360225623254 40.652913981912235 C 0.0 **** -0.24
8677 H 116.34043524125634 114.31849213869246 39.6415655253783 H 0.0 **** 0.06
8678 H 115.98468170310284 115.29735659457674 41.08417862447274 H 0.0 **** 0.06
8679 H 117.67316551354892 114.97772685511065 40.62034768827027 H 0.0 **** 0.06
8680 H 116.66302980410812 113.66159669537608 41.263522647360446 H 0.0 **** 0.06
8681 C 99.55891539371434 113.33047969837011 122.6285093100352 C 0.0 **** -0.24
8682 H 100.52612334084046 113.48658271469066 122.1511338568541 H 0.0 **** 0.06
8683 H 99.10604406739316 114.29529408443312 122.85763916069584 H 0.0 **** 0.06
8684 H 99.6965141477481 112.7646368753347 123.55057397944725 H 0.0 **** 0.06
8685 H 98.90661833720102 112.7737115718146 121.95472552903654 H 0.0 **** 0.06
8686 C 32.52481051915714 107.9388181407819 118.74135118634564 C 0.0 **** -0.24
8687 H 33.32198766528157 107.19531565511193 118.72213170958727 H 0.0 **** 0.06
8688 H 32.49184403966683 108.46011022572469 117.78487982908152 H 0.0 **** 0.06
8689 H 32.71689317720674 108.656005066831 119.53970004496708 H 0.0 **** 0.06
8690 H 31.570615990131245 107.44425659409316 118.91934363668179 H 0.0 **** 0.06
8691 C 61.226809894217865 31.26685665023703 6.557653866530444 C 0.0 **** -0.24
8692 H 61.852820788789245 30.801290339105464 5.796076486482093 H 0.0 **** 0.06
8693 H 60.512433847370744 31.93759351458806 6.079298684593539 H 0.0 **** 0.06
8694 H 61.853832126500095 31.832801278694745 7.2457588312026076 H 0.0 **** 0.06
8695 H 60.688697705424374 30.494596740660626 7.106416617768588 H 0.0 **** 0.06
8696 C 31.662913969801366 92.3859123996657 18.057356933015253 C 0.0 **** -0.24
8697 H 30.934993185297685 91.60558039011016 18.281189539053766 H 0.0 **** 0.06
8698 H 32.58917175642915 92.1813291292915 18.59357131555126 H 0.0 **** 0.06
8699 H 31.266355897290936 93.35220947072924 18.371442040866558 H 0.0 **** 0.06
8700 H 31.858143482653162 92.40373898557877 16.985328325917145 H 0.0 **** 0.06
8701 C 48.872688261421615 20.115030818508785 76.07848334209422 C 0.0 **** -0.24
8702 H 49.707188291050386 20.62867504076553 75.60138271665954 H 0.0 **** 0.06
8703 H 49.06419509611396 20.027401875500175 77.14848524378806 H 0.0 **** 0.06
8704 H 48.763690802936765 19.119663246685263 75.64722856159659 H 0.0 **** 0.06
8705 H 47.95654471642041 20.682916948541504 75.91715435740906 H 0.0 **** 0.06
8706 C 22.631995860339316 25.160316440951846 19.657632030040816 C 0.0 **** -0.24
8707 H 23.215706933051422 26.05658035371202 19.448153921682206 H 0.0 **** 0.06
8708 H 21.728102733505125 25.435696332061042 20.20219874588065 H 0.0 **** 0.06
8709 H 23.225113838936068 24.47271082009827 20.26051450474273 H 0.0 **** 0.06
8710 H 22.358582001060086 24.67835078607706 18.718445823514514 H 0.0 **** 0.06
8711 C 44.037178195073935 118.34455068368422 89.54536626015279 C 0.0 **** -0.24
8712 H 44.14732166712672 119.16895913865952 88.84067566398593 H 0.0 **** 0.06
8713 H 45.01743261036859 117.91900839764342 89.76097880862869 H 0.0 **** 0.06
8714 H 43.395399386077216 117.57855194534805 89.111464732121 H 0.0 **** 0.06
8715 H 43.59018736001383 118.7132157454163 90.46836948247557 H 0.0 **** 0.06
8716 C 16.679834286644137 117.75295605859625 87.10078189551518 C 0.0 **** -0.24
8717 H 15.723252782396486 118.2153798146409 86.85858822802125 H 0.0 **** 0.06
8718 H 16.940502279566687 117.03170194560334 86.32524950442287 H 0.0 **** 0.06
8719 H 16.604417871372704 117.24211622373744 88.06038061416456 H 0.0 **** 0.06
8720 H 17.451096205691613 118.52111438227504 87.15806674473457 H 0.0 **** 0.06
8721 C 74.48421353102195 56.025632325268035 17.84126197505205 C 0.0 **** -0.24
8722 H 75.35335006017074 55.59591582882629 18.340553673533435 H 0.0 **** 0.06
8723 H 74.65721780633763 56.04453354605424 16.76516486941017 H 0.0 **** 0.06
8724 H 74.32318891971545 57.040881421158545 18.201300802957633 H 0.0 **** 0.06
8725 H 73.60484055521363 55.41962967083097 18.057321253621495 H 0.0 **** 0.06
8726 C 103.14318446273771 34.030221083413466 108.79834721664272 C 0.0 **** -0.24
8727 H 103.40563237934501 34.42391066969114 109.77971169827816 H 0.0 **** 0.06
8728 H 102.35651751898227 34.643179749093235 108.35898691582886 H 0.0 **** 0.06
8729 H 102.79005406771142 33.00334581483082 108.90117669769077 H 0.0 **** 0.06
8730 H 104.02190385864832 34.04868833388099 108.15367684332048 H 0.0 **** 0.06
8731 C 54.303070042717295 116.3306876501023 65.68060152342628 C 0.0 **** -0.24
8732 H 54.31062525891345 117.27522471771229 66.2231467022994 H 0.0 **** 0.06
8733 H 55.03646335110638 116.36908070133953 64.87341004317818 H 0.0 **** 0.06
8734 H 53.31081115810336 116.1599286917317 65.26267999158205 H 0.0 **** 0.06
8735 H 54.55557493397421 115.51805031840078 66.36200490810404 H 0.0 **** 0.06
8736 C 123.34496559208223 117.7571277810853 75.73386180592244 C 0.0 **** -0.24
8737 H 122.70791568468566 117.1714947627587 76.39601514500349 H 0.0 **** 0.06
8738 H 122.95665024735463 118.77322209221828 75.65975185665182 H 0.0 **** 0.06
8739 H 123.35754951263857 117.29987678273028 74.7436381107637 H 0.0 **** 0.06
8740 H 124.35918608585509 117.78339353939492 76.13346242639619 H 0.0 **** 0.06
8741 C 96.25064609962192 111.58066951989414 90.36060398277385 C 0.0 **** -0.24
8742 H 96.046178465976 112.64421343275626 90.484704956468 H 0.0 **** 0.06
8743 H 96.21287215887193 111.32539333955378 89.30131887523007 H 0.0 **** 0.06
8744 H 95.5020567528424 111.00190250163904 90.90114482809904 H 0.0 **** 0.06
8745 H 97.24020695082385 111.3522793067316 90.75485500808097 H 0.0 **** 0.06
8746 C 27.07909575333784 73.10983002900615 28.903451728100066 C 0.0 **** -0.24
8747 H 28.130366331261897 72.86599984578551 28.753739792505492 H 0.0 **** 0.06
8748 H 26.535983184990442 72.96559765244601 27.96837709155318 H 0.0 **** 0.06
8749 H 26.988833035436954 74.1496787727378 29.218431041803917 H 0.0 **** 0.06
8750 H 26.6596134616467 72.45931811427124 29.671054865050777 H 0.0 **** 0.06
8751 C 30.877880510670195 49.104755039058716 31.156722765187283 C 0.0 **** -0.24
8752 H 30.300136154938457 50.00724161405091 31.35817049692747 H 0.0 **** 0.06
8753 H 30.824842455846237 48.86961221171154 30.09335802878462 H 0.0 **** 0.06
8754 H 30.46831188512664 48.27596218902519 31.73339477863459 H 0.0 **** 0.06
8755 H 31.916825858139333 49.26713051475008 31.4415602851152 H 0.0 **** 0.06
8756 C 59.586706029414856 95.58381709445815 94.53464835663505 C 0.0 **** -0.24
8757 H 60.40054970367612 96.30521468669099 94.4575203646603 H 0.0 **** 0.06
8758 H 59.16248227945162 95.62033716889152 95.53829083668114 H 0.0 **** 0.06
8759 H 59.96969724124064 94.5817351193687 94.3383342640239 H 0.0 **** 0.06
8760 H 58.8152010139181 95.82710326537529 93.80452198094929 H 0.0 **** 0.06
8761 C 47.3019828049907 86.8803905272299 80.07147808596278 C 0.0 **** -0.24
8762 H 47.98042256869404 87.42914107791503 80.72434943843862 H 0.0 **** 0.06
8763 H 46.61743999435639 87.57891010532211 79.58957738915856 H 0.0 **** 0.06
8764 H 46.73268333000723 86.16167992442374 80.6604991865434 H 0.0 **** 0.06
8765 H 47.87763143373894 86.35306298163471 79.31083689686034 H 0.0 **** 0.06
8766 C 52.218796787710374 52.346925697094434 96.65564182972707 C 0.0 **** -0.24
8767 H 52.224553026943966 52.13063932545218 95.58784516404319 H 0.0 **** 0.06
8768 H 53.1010522074682 52.93456402558513 96.91112631566301 H 0.0 **** 0.06
8769 H 52.230887461110484 51.41095341598711 97.21626250316046 H 0.0 **** 0.06
8770 H 51.32072184296035 52.90960527051131 96.90768492459341 H 0.0 **** 0.06
8771 C 6.143348852467 37.66398452691675 106.45080210576675 C 0.0 **** -0.24
8772 H 6.581794429885406 37.933544741183354 105.48937580361473 H 0.0 **** 0.06
8773 H 6.431784322302292 38.40216992223034 107.1997620913219 H 0.0 **** 0.06
8774 H 6.505030955356517 36.681157234383264 106.75075744132644 H 0.0 **** 0.06
8775 H 5.058110948415219 37.64087917761805 106.36073296811009 H 0.0 **** 0.06
8776 C 60.27711986777017 4.90203562645587 85.18661400527907 C 0.0 **** -0.24
8777 H 59.25836404922322 4.923316096827051 84.79723433327604 H 0.0 **** 0.06
8778 H 60.59483301427909 3.8665378105777393 85.31300781171245 H 0.0 **** 0.06
8779 H 60.30779153772065 5.411844627172371 86.14962841121411 H 0.0 **** 0.06
8780 H 60.943833513466686 5.405710102571959 84.48687860605725 H 0.0 **** 0.06
8781 C 81.37627072003494 114.78165854223812 15.493641662008514 C 0.0 **** -0.24
8782 H 81.43891122794338 113.69416409177441 15.527651569226975 H 0.0 **** 0.06
8783 H 80.95408986994772 115.09158676783707 14.53746774663766 H 0.0 **** 0.06
8784 H 82.37391582498063 115.20621143731228 15.604865673351142 H 0.0 **** 0.06
8785 H 80.73955329159429 115.13461007460278 16.304314092392303 H 0.0 **** 0.06
8786 C 76.38734457507768 2.53114853607382 76.25749346049406 C 0.0 **** -0.24
8787 H 76.75561648674497 3.544431522886578 76.09693164326438 H 0.0 **** 0.06
8788 H 77.17963638489263 1.817198845748285 76.03440785493672 H 0.0 **** 0.06
8789 H 75.53624936906967 2.3469223961509336 75.60221003700832 H 0.0 **** 0.06
8790 H 76.07744220194436 2.418157165171655 77.29584509464388 H 0.0 **** 0.06
8791 C 114.13350995374621 20.225358497359252 4.426499197951472 C 0.0 **** -0.24
8792 H 114.77883241330662 19.80573192275109 5.198570565106337 H 0.0 **** 0.06
8793 H 114.41922802771023 19.82098228207586 3.4549937616700532 H 0.0 **** 0.06
8794 H 114.23986522963905 21.309964919984345 4.414083236192766 H 0.0 **** 0.06
8795 H 113.09712948576107 19.96393778412734 4.6388983813504865 H 0.0 **** 0.06
8796 C 72.82836960445685 118.58374568064391 74.28100559597277 C 0.0 **** -0.24
8797 H 72.62979379183327 118.9024255459868 75.30443048937119 H 0.0 **** 0.06
8798 H 73.85170084530087 118.8469552361243 74.01121739908169 H 0.0 **** 0.06
8799 H 72.13448826680491 119.08195604389732 73.60455841739841 H 0.0 **** 0.06
8800 H 72.69877345227057 117.50388992666825 74.20589156461983 H 0.0 **** 0.06
8801 C 35.19205280016567 70.93038545235093 115.74550707724572 C 0.0 **** -0.24
8802 H 35.85817960544048 71.57189919249402 116.32170136968922 H 0.0 **** 0.06
8803 H 34.895500315862705 71.4439568015605 114.83012361548067 H 0.0 **** 0.06
8804 H 34.3070114958181 70.70073964987937 116.33755295302042 H 0.0 **** 0.06
8805 H 35.70949734026195 70.00490840601246 115.49160724483653 H 0.0 **** 0.06
8806 C 123.74514037724833 34.79610862411778 114.7996488685186 C 0.0 **** -0.24
8807 H 124.77712783986729 34.536637785058474 114.56453731874899 H 0.0 **** 0.06
8808 H 123.69888514166098 35.22910206756799 115.79905612092011 H 0.0 **** 0.06
8809 H 123.12781895422553 33.897593672678966 114.76362198784261 H 0.0 **** 0.06
8810 H 123.3766111799149 35.51903577395149 114.07222928834574 H 0.0 **** 0.06
8811 C 50.032315933819916 103.84579324727264 117.44948430884716 C 0.0 **** -0.24
8812 H 50.69370792697498 104.66342160308807 117.15913051438825 H 0.0 **** 0.06
8813 H 50.25333515292391 103.5462527122582 118.47357543695733 H 0.0 **** 0.06
8814 H 50.187027701275326 102.99913780734863 116.78066180535887 H 0.0 **** 0.06
8815 H 48.995311381599436 104.17736443416686 117.38316764223332 H 0.0 **** 0.06
8816 C 35.20274279113957 69.50455400180789 105.58993739463206 C 0.0 **** -0.24
8817 H 35.49366095691616 70.51811721947041 105.86430372712746 H 0.0 **** 0.06
8818 H 34.11425210920601 69.42904239851686 105.5807791205792 H 0.0 **** 0.06
8819 H 35.61001571101957 68.80010579445815 106.31491130980827 H 0.0 **** 0.06
8820 H 35.59103451774607 69.27138305838855 104.598420596545 H 0.0 **** 0.06
8821 C 77.75628396742984 110.21280934614575 32.71507464930675 C 0.0 **** -0.24
8822 H 77.95174924214945 111.00013774284717 33.44275590022063 H 0.0 **** 0.06
8823 H 78.03126568081747 109.24777481414027 33.140694331723395 H 0.0 **** 0.06
8824 H 78.34702812921068 110.3949123904435 31.816172744629576 H 0.0 **** 0.06
8825 H 76.69706211703276 110.2103289748381 32.459110603385064 H 0.0 **** 0.06
8826 C 77.52488598972043 52.303338604827104 51.2425630984755 C 0.0 **** -0.24
8827 H 77.35161513888612 51.65084987177315 50.38664289976268 H 0.0 **** 0.06
8828 H 77.2582714863771 51.777412589721536 52.15893649606207 H 0.0 **** 0.06
8829 H 76.91184455256162 53.19883557110657 51.14538780743658 H 0.0 **** 0.06
8830 H 78.57674856561522 52.58411203342425 51.277218857964385 H 0.0 **** 0.06
8831 C 0.7890452580316492 80.46722035632982 20.84146208189273 C 0.0 **** -0.24
8832 H 0.6946628565975175 79.96771563955073 21.805153762003272 H 0.0 **** 0.06
8833 H 1.7888300913616888 80.89181757936353 20.74878948378634 H 0.0 **** 0.06
8834 H 0.04834777666545165 81.26437645739307 20.772222348728377 H 0.0 **** 0.06
8835 H 0.6243133999605277 79.74691897822422 20.040781751932172 H 0.0 **** 0.06
8836 C 85.17874847776852 102.5188132593538 62.07944595519096 C 0.0 **** -0.24
8837 H 84.64837985906212 103.37312519419586 61.659186589015206 H 0.0 **** 0.06
8838 H 86.17046538951001 102.8322344051061 62.40480949388058 H 0.0 **** 0.06
8839 H 85.272893327524 101.74141591917729 61.320745178077956 H 0.0 **** 0.06
8840 H 84.62244435975447 102.12868929718317 62.9315267662579 H 0.0 **** 0.06
8841 C 48.25035850580492 54.75599631421156 33.852311414790485 C 0.0 **** -0.24
8842 H 48.71229724412299 53.82388547214491 33.5261171245271 H 0.0 **** 0.06
8843 H 47.266454347756174 54.85437255548884 33.392941775437365 H 0.0 **** 0.06
8844 H 48.877707329859064 55.59544905154837 33.55060738008826 H 0.0 **** 0.06
8845 H 48.146958271568394 54.75062547815965 34.93658820611542 H 0.0 **** 0.06
8846 C 65.10427476327457 59.68561103951774 73.28013622810792 C 0.0 **** -0.24
8847 H 64.84380273931852 60.1167909956534 74.24647097776412 H 0.0 **** 0.06
8848 H 64.39458299899395 60.02688088967456 72.52651351436828 H 0.0 **** 0.06
8849 H 65.06871505617019 58.597488863475334 73.34715438603038 H 0.0 **** 0.06
8850 H 66.11007583572997 60.00000698839111 73.002240427808 H 0.0 **** 0.06
8851 C 52.58602217798932 59.739928655566416 56.65827489265375 C 0.0 **** -0.24
8852 H 52.64057236145405 60.50778873455093 57.43039076365558 H 0.0 **** 0.06
8853 H 52.16046358533603 60.1681427472237 55.74968401387633 H 0.0 **** 0.06
8854 H 51.9561995651797 58.920499685100395 57.00360706298977 H 0.0 **** 0.06
8855 H 53.58771186000422 59.36520546294983 56.447528545372734 H 0.0 **** 0.06
8856 C 58.25734741516541 51.87416185202417 92.759248836885 C 0.0 **** -0.24
8857 H 57.84971354374804 50.895554426593435 92.50512316376867 H 0.0 **** 0.06
8858 H 59.246229478988965 51.75115740953407 93.20203538855388 H 0.0 **** 0.06
8859 H 57.59816535711491 52.367673885112396 93.47242589710683 H 0.0 **** 0.06
8860 H 58.33512870574606 52.47997378676601 91.8565491813545 H 0.0 **** 0.06
8861 C 20.816061826557046 16.776780904496036 95.54808039814822 C 0.0 **** -0.24
8862 H 19.934978074279798 17.306322469031272 95.18618146467281 H 0.0 **** 0.06
8863 H 21.683290118850692 17.062405589322907 94.95229993243936 H 0.0 **** 0.06
8864 H 20.65405259590196 15.701957135324449 95.46118602579645 H 0.0 **** 0.06
8865 H 20.991443852940733 17.03485785437988 96.59213552259985 H 0.0 **** 0.06
8866 C 112.15068827748357 78.46833645489875 53.584427492096694 C 0.0 **** -0.24
8867 H 111.75119180856782 78.21210619901618 54.56594181303336 H 0.0 **** 0.06
8868 H 112.75486137621064 77.64104516819233 53.211696067552865 H 0.0 **** 0.06
8869 H 112.76824717905762 79.3621657163165 53.666694779853145 H 0.0 **** 0.06
8870 H 111.3272081758397 78.65769467627732 52.89589521936658 H 0.0 **** 0.06
8871 C 107.36964576332842 116.23798833270035 62.61047711155388 C 0.0 **** -0.24
8872 H 107.1652642471597 117.12642356362488 63.20893580224035 H 0.0 **** 0.06
8873 H 106.42761114377632 115.78586642316077 62.299005921801864 H 0.0 **** 0.06
8874 H 107.93820773291814 115.52310321834915 63.205178937051784 H 0.0 **** 0.06
8875 H 107.94757344305921 116.51923934946166 61.72969154648186 H 0.0 **** 0.06
8876 C 18.158955906202834 110.35860268889928 14.01653419184072 C 0.0 **** -0.24
8877 H 17.92830735543299 109.43968534136334 14.554710571232533 H 0.0 **** 0.06
8878 H 17.254497055535353 110.9615354036792 13.924958345914888 H 0.0 **** 0.06
8879 H 18.534075133566205 110.11280465091127 13.023124613158018 H 0.0 **** 0.06
8880 H 18.91654842375948 110.9202275161622 14.562857194847027 H 0.0 **** 0.06
8881 C 96.4302980952319 35.902508769372474 56.47731452027777 C 0.0 **** -0.24
8882 H 95.89825025858684 36.656583857232334 57.05762184202041 H 0.0 **** 0.06
8883 H 95.7255939337301 35.147346664661484 56.12877046096004 H 0.0 **** 0.06
8884 H 97.18852868530806 35.431319769571644 57.102670419312275 H 0.0 **** 0.06
8885 H 96.91039628862691 36.37544505461969 55.620474561780725 H 0.0 **** 0.06
8886 C 19.488397463436613 106.09168433619136 13.216969898102775 C 0.0 **** -0.24
8887 H 20.508043803056445 106.20247876056538 12.84827404331287 H 0.0 **** 0.06
8888 H 19.224490056475048 106.95906327926181 13.821535299063072 H 0.0 **** 0.06
8889 H 19.417546683651413 105.18867094907108 13.824024873540367 H 0.0 **** 0.06
8890 H 18.80367674009852 106.01606087223715 12.372106984178913 H 0.0 **** 0.06
8891 C 112.06611453033173 77.47316864419486 40.286553509867815 C 0.0 **** -0.24
8892 H 112.2840902607532 77.86327056382142 41.28019918239079 H 0.0 **** 0.06
8893 H 111.77638245556363 76.42462563551767 40.3628794583139 H 0.0 **** 0.06
8894 H 112.95456587452566 77.560218624179 39.65995451955786 H 0.0 **** 0.06
8895 H 111.25136083170588 78.04420618267139 39.8421289260138 H 0.0 **** 0.06
8896 C 30.245917354075836 22.92437970021416 31.31280532228616 C 0.0 **** -0.24
8897 H 30.81748613490194 22.018924918185604 31.519187319560963 H 0.0 **** 0.06
8898 H 30.83087463212229 23.585375072789134 30.673417492510616 H 0.0 **** 0.06
8899 H 30.01889699887463 23.43234974564183 32.250253407920916 H 0.0 **** 0.06
8900 H 29.316691136323215 22.659613166557847 30.808950194249306 H 0.0 **** 0.06
8901 C 99.77128185114384 108.1472264351584 44.3687940075103 C 0.0 **** -0.24
8902 H 100.84406772838344 107.95884865320969 44.413760602781736 H 0.0 **** 0.06
8903 H 99.58445620413897 109.0489754798995 43.78474126812148 H 0.0 **** 0.06
8904 H 99.38303488138976 108.28138094282293 45.37852891137709 H 0.0 **** 0.06
8905 H 99.27356859066344 107.29970066470166 43.89814524776068 H 0.0 **** 0.06
8906 C 91.09862243164673 79.22531149018275 41.26522698820486 C 0.0 **** -0.24
8907 H 91.48835383501752 78.92356807838377 42.23769142551947 H 0.0 **** 0.06
8908 H 91.60939774241055 78.66622532843843 40.480927951440435 H 0.0 **** 0.06
8909 H 91.26846483633744 80.29238447254386 41.121121043581695 H 0.0 **** 0.06
8910 H 90.0292565633458 79.01854529945882 41.222494211725234 H 0.0 **** 0.06
8911 C 109.48153556836529 60.357200217231465 50.368167376836915 C 0.0 **** -0.24
8912 H 108.64842341284205 61.031896005137185 50.16789879062377 H 0.0 **** 0.06
8913 H 109.18708193895691 59.33565731071076 50.12671369292263 H 0.0 **** 0.06
8914 H 109.7526018492546 60.41894128405147 51.42164768793156 H 0.0 **** 0.06
8915 H 110.3360325731318 60.6443382948119 49.75548124618152 H 0.0 **** 0.06
8916 C 33.92207654242935 92.22368526699385 94.51822685290279 C 0.0 **** -0.24
8917 H 33.037983671615706 92.30614859140452 93.8859703333462 H 0.0 **** 0.06
8918 H 33.63465792654176 91.83978096613815 95.49643576146546 H 0.0 **** 0.06
8919 H 34.3787784107914 93.2068568238004 94.63248887093907 H 0.0 **** 0.06
8920 H 34.63712127912777 91.54330790173081 94.0553452355451 H 0.0 **** 0.06
8921 C 110.71079728726966 67.89245872024958 100.78748973806434 C 0.0 **** -0.24
8922 H 111.3891423038231 68.32318884432755 100.05090144511033 H 0.0 **** 0.06
8923 H 110.77823254960866 66.804929128573 100.7512046784945 H 0.0 **** 0.06
8924 H 109.68944579802674 68.20151119259616 100.56404972736291 H 0.0 **** 0.06
8925 H 110.9872026523778 68.24121638147453 101.78229215634444 H 0.0 **** 0.06
8926 C 99.00028248171515 100.66608081507997 3.287520107627884 C 0.0 **** -0.24
8927 H 98.54170938666653 100.98296836716197 4.22421680516743 H 0.0 **** 0.06
8928 H 100.01800270153552 100.32641372371948 3.477626613495886 H 0.0 **** 0.06
8929 H 99.02137914068527 101.50519670401881 2.591059596018823 H 0.0 **** 0.06
8930 H 98.4187538750362 99.85146223792859 2.8565459447316357 H 0.0 **** 0.06
8931 C 48.63435866342533 16.79639031630768 18.59519144404635 C 0.0 **** -0.24
8932 H 48.47950225545472 17.870396337633196 18.48699567848925 H 0.0 **** 0.06
8933 H 48.18079920543602 16.45660795912505 19.52594406472359 H 0.0 **** 0.06
8934 H 49.70324867340017 16.584569672701093 18.613270385193374 H 0.0 **** 0.06
8935 H 48.17447009045216 16.277250579896275 17.75446251810537 H 0.0 **** 0.06
8936 C 74.04841129734251 33.45811895073231 58.847418956541716 C 0.0 **** -0.24
8937 H 73.64056655955446 32.49270927874744 59.1443035400023 H 0.0 **** 0.06
8938 H 73.27626292273828 34.04043555721219 58.34392416752482 H 0.0 **** 0.06
8939 H 74.88808498783305 33.30497865273435 58.169351217153604 H 0.0 **** 0.06
8940 H 74.39059689274382 33.9955840312785 59.732073712834065 H 0.0 **** 0.06
8941 C 58.232500666106645 79.13285580314516 32.58414598252887 C 0.0 **** -0.24
8942 H 57.91708779055644 80.0112524912993 32.02113472126703 H 0.0 **** 0.06
8943 H 58.136324947959736 78.24585716621915 31.95793407002654 H 0.0 **** 0.06
8944 H 57.60430757024953 79.02343877824923 33.468188434851356 H 0.0 **** 0.06
8945 H 59.27218591449899 79.25152113729158 32.8900836523556 H 0.0 **** 0.06
8946 C 69.900520009135 12.957276761700484 81.80634859338764 C 0.0 **** -0.24
8947 H 69.83829145825948 12.720057699250319 82.86868209227191 H 0.0 **** 0.06
8948 H 70.92637161732915 13.227026530743132 81.55310304115571 H 0.0 **** 0.06
8949 H 69.2376447718791 13.79334014243507 81.58175075198218 H 0.0 **** 0.06
8950 H 69.59884387774326 12.087904797177217 81.22258872946489 H 0.0 **** 0.06
8951 C 73.59677967727075 64.23743169490005 117.69766173769052 C 0.0 **** -0.24
8952 H 72.79363933824101 64.97451496906388 117.70160669234579 H 0.0 **** 0.06
8953 H 74.53106391535448 64.71773756118559 117.98708168122145 H 0.0 **** 0.06
8954 H 73.69837239749647 63.815990369337115 116.69823852178338 H 0.0 **** 0.06
8955 H 73.3625513765608 63.442586560795405 118.40531983769297 H 0.0 **** 0.06
8956 C 44.51498724386188 2.793843377668411 9.643911374862967 C 0.0 **** -0.24
8957 H 44.39503149598731 1.865199875120343 9.086564505020533 H 0.0 **** 0.06
8958 H 45.1910735566899 2.6291896368737966 10.483376796061407 H 0.0 **** 0.06
8959 H 43.54418715853697 3.120789681271317 10.018001042755373 H 0.0 **** 0.06
8960 H 44.92816498943063 3.560183995754098 8.988583304620363 H 0.0 **** 0.06
8961 C 49.02297539780943 111.91007782359254 101.45810760193186 C 0.0 **** -0.24
8962 H 48.609129823996824 112.89919395937221 101.26116640702807 H 0.0 **** 0.06
8963 H 49.696821551755505 111.63073888382299 100.64839542789761 H 0.0 **** 0.06
8964 H 48.212215437595546 111.18338995162205 101.52354318683618 H 0.0 **** 0.06
8965 H 49.57236227201915 111.92680401169511 102.3990385077461 H 0.0 **** 0.06
8966 C 109.39305294347855 111.18936225003348 81.68109134432484 C 0.0 **** -0.24
8967 H 110.46990466628685 111.21363356468565 81.51123838386124 H 0.0 **** 0.06
8968 H 108.8734531293162 111.2891868387918 80.72731994953881 H 0.0 **** 0.06
8969 H 109.11017139254494 112.01214126821664 82.337257018772 H 0.0 **** 0.06
8970 H 109.11974021765722 110.24244429020594 82.14634097912588 H 0.0 **** 0.06
8971 C 110.9197470256698 68.28404009047685 51.38199055860133 C 0.0 **** -0.24
8972 H 110.2437140306877 69.1041711741862 51.13971568445356 H 0.0 **** 0.06
8973 H 110.5495107385577 67.75645507807072 52.26207064197841 H 0.0 **** 0.06
8974 H 111.91392353958643 68.68117952452472 51.58706137391013 H 0.0 **** 0.06
8975 H 110.97183979384745 67.59435458512566 50.539114534063415 H 0.0 **** 0.06
8976 C 59.51499331420409 55.20068949759627 59.6557906215923 C 0.0 **** -0.24
8977 H 59.000704599553515 54.360439381077725 60.12017458221624 H 0.0 **** 0.06
8978 H 58.948647258925945 55.5387955190275 58.78723132958237 H 0.0 **** 0.06
8979 H 60.51076940490782 54.88818654506841 59.34159708170722 H 0.0 **** 0.06
8980 H 59.60050726530406 56.01693990374412 60.37416408158606 H 0.0 **** 0.06
8981 C 51.26856497311758 12.220818547044445 17.961536101989992 C 0.0 **** -0.24
8982 H 50.24595562178001 12.299797509943119 17.593423196237325 H 0.0 **** 0.06
8983 H 51.9575671892577 12.59844231162569 17.20520151109443 H 0.0 **** 0.06
8984 H 51.498466734579694 11.177396043890468 18.174017380361718 H 0.0 **** 0.06
8985 H 51.37201324868491 12.809852540279053 18.87332509372959 H 0.0 **** 0.06
8986 C 63.44901749600727 58.1433363405514 11.622874152998719 C 0.0 **** -0.24
8987 H 64.29211040251828 57.47556540720001 11.444837483477357 H 0.0 **** 0.06
8988 H 63.72820011715092 58.88854454413098 12.368887287064865 H 0.0 **** 0.06
8989 H 62.5986921854948 57.565827755383225 11.98518395583163 H 0.0 **** 0.06
8990 H 63.1792761046913 58.643107630197676 10.69241085056359 H 0.0 **** 0.06
8991 C 91.61166456140003 29.015643501473335 25.12744866618339 C 0.0 **** -0.24
8992 H 92.39163639367413 28.78991906644025 24.400256031376365 H 0.0 **** 0.06
8993 H 91.54749912576673 28.206904536537884 25.855370219297214 H 0.0 **** 0.06
8994 H 90.65567068136227 29.119537312767207 24.6135415512504 H 0.0 **** 0.06
8995 H 91.85212733665708 29.947322030087633 25.63932508422912 H 0.0 **** 0.06
8996 C 109.28803121128905 67.06224777744563 4.2226652718589435 C 0.0 **** -0.24
8997 H 109.55862467658537 66.05691920774365 3.899335147816288 H 0.0 **** 0.06
8998 H 109.38529062281813 67.1338254735681 5.306198370322221 H 0.0 **** 0.06
8999 H 108.25779736625611 67.27079937802313 3.9353081308152866 H 0.0 **** 0.06
9000 H 109.95141791533919 67.78668771541419 3.749177556118127 H 0.0 **** 0.06
9001 C 80.0627084585957 49.31699497943731 31.269317118424446 C 0.0 **** -0.24
9002 H 80.54251168830956 50.04385853159578 31.924597161854464 H 0.0 **** 0.06
9003 H 79.19432590534296 49.77448587588609 30.79426387995681 H 0.0 **** 0.06
9004 H 79.74533333282068 48.45356469581233 31.85405542304332 H 0.0 **** 0.06
9005 H 80.76903946447169 48.99669852450249 30.50314192930071 H 0.0 **** 0.06
9006 C 69.76010385629593 100.03801015973734 38.65368261593571 C 0.0 **** -0.24
9007 H 70.43671455992151 99.46824315250572 38.01691875886442 H 0.0 **** 0.06
9008 H 68.73045300287907 99.74234567099985 38.44633153501073 H 0.0 **** 0.06
9009 H 69.87978805922748 101.10245336399736 38.45080559388663 H 0.0 **** 0.06
9010 H 69.99206557695265 99.8391079478963 39.69965266370821 H 0.0 **** 0.06
9011 C 30.346920934068436 3.813282483694529 117.1319040581895 C 0.0 **** -0.24
9012 H 31.31710847798675 3.694096207098827 116.65038102972612 H 0.0 **** 0.06
9013 H 29.793938973314283 4.6141594648522215 116.64078621632049 H 0.0 **** 0.06
9014 H 30.49053634890697 4.061603418903861 118.18292687923855 H 0.0 **** 0.06
9015 H 29.784698976846016 2.8824519551889285 117.05168715345499 H 0.0 **** 0.06
9016 C 31.667163179690384 117.81846864340665 30.79746494744495 C 0.0 **** -0.24
9017 H 31.654095125498948 118.89481446291953 30.628783121259787 H 0.0 **** 0.06
9018 H 32.66484673642238 117.43117749354425 30.592773110622687 H 0.0 **** 0.06
9019 H 30.947054751357157 117.33819535643407 30.135066938477195 H 0.0 **** 0.06
9020 H 31.40220491601051 117.61038021604942 31.83475859243407 H 0.0 **** 0.06
9021 C 95.23516187613171 45.90341026990873 91.8530047135458 C 0.0 **** -0.24
9022 H 95.48779657055168 46.48318009935802 90.96530017015408 H 0.0 **** 0.06
9023 H 95.69343271149269 44.91628680281414 91.78539659913687 H 0.0 **** 0.06
9024 H 94.15290342262827 45.79734231507043 91.92157503776966 H 0.0 **** 0.06
9025 H 95.60651479985417 46.416831862392236 92.73974704712262 H 0.0 **** 0.06
9026 C 27.467184970004553 26.44742848732068 29.280998287783547 C 0.0 **** -0.24
9027 H 27.47863237841034 27.207240994194763 30.062787036176573 H 0.0 **** 0.06
9028 H 26.835653072724256 26.783087213939723 28.457699767013736 H 0.0 **** 0.06
9029 H 27.072308079221614 25.515345763154983 29.685234288225388 H 0.0 **** 0.06
9030 H 28.48280390950518 26.284670422034765 28.917859495799647 H 0.0 **** 0.06
9031 C 68.7802936529616 94.87613476233673 104.68759417139961 C 0.0 **** -0.24
9032 H 67.70602451751327 95.05336425877024 104.74225911506437 H 0.0 **** 0.06
9033 H 69.22537286106751 95.03768367942055 105.6702239295322 H 0.0 **** 0.06
9034 H 69.2255935939659 95.5639971284705 103.9686372548116 H 0.0 **** 0.06
9035 H 68.96339908552673 93.8494566762468 104.36987536698987 H 0.0 **** 0.06
9036 C 56.64534549340158 21.143985057652912 78.55850071346859 C 0.0 **** -0.24
9037 H 57.319488984871754 21.859544880210052 79.02949796687668 H 0.0 **** 0.06
9038 H 56.85898724436075 20.143254788548447 78.9340973612091 H 0.0 **** 0.06
9039 H 56.790601516200155 21.16593934687303 77.47832414547216 H 0.0 **** 0.06
9040 H 55.6151562065412 21.408862045272052 78.79241270081789 H 0.0 **** 0.06
9041 C 4.003505984917695 58.827361568369 93.08248213508264 C 0.0 **** -0.24
9042 H 4.605553280457116 58.126834238300134 93.66102617891269 H 0.0 **** 0.06
9043 H 2.9990054908525963 58.876837155711826 93.50341046638366 H 0.0 **** 0.06
9044 H 3.9473518812493467 58.49020220313648 92.04798325737667 H 0.0 **** 0.06
9045 H 4.462107670142814 59.815741065346046 93.1189128174311 H 0.0 **** 0.06
9046 C 97.15411642773044 83.62621350545542 15.979196217082347 C 0.0 **** -0.24
9047 H 97.17435699131178 82.7462467953876 15.336432182002966 H 0.0 **** 0.06
9048 H 96.39518711131059 84.32058469551298 15.618717856557623 H 0.0 **** 0.06
9049 H 98.12983675084718 84.11107946500314 15.960314318130372 H 0.0 **** 0.06
9050 H 96.91686744149403 83.3248153611164 16.99921668531664 H 0.0 **** 0.06
9051 C 81.04181006557388 34.14588153774069 16.180680886616983 C 0.0 **** -0.24
9052 H 81.51736975890714 35.116229501578694 16.041639674846124 H 0.0 **** 0.06
9053 H 81.55987430657086 33.399033987373976 15.578187780425793 H 0.0 **** 0.06
9054 H 79.99872723922556 34.20362721457328 15.870719073910777 H 0.0 **** 0.06
9055 H 81.09346946129637 33.863648287211774 17.232605526189047 H 0.0 **** 0.06
9056 C 27.82722649090624 95.92252876342849 96.8572183080575 C 0.0 **** -0.24
9057 H 27.236799818452937 95.06827501929598 96.52547652832658 H 0.0 **** 0.06
9058 H 27.78322508636188 95.99413095670593 97.94429086600144 H 0.0 **** 0.06
9059 H 27.426478052904997 96.83452901376546 96.41577307651966 H 0.0 **** 0.06
9060 H 28.862720022066412 95.79253345624062 96.5440266294184 H 0.0 **** 0.06
9061 C 83.97930942246913 117.84509727730759 24.092128362622816 C 0.0 **** -0.24
9062 H 83.87549833032418 117.75251188710138 23.01076952254681 H 0.0 **** 0.06
9063 H 83.79419124183735 116.877815186824 24.559706534448082 H 0.0 **** 0.06
9064 H 83.25998803758708 118.57458460836821 24.465326334639485 H 0.0 **** 0.06
9065 H 84.99026176557769 118.17686032992512 24.331822795780226 H 0.0 **** 0.06
9066 C 98.30958186940873 78.88323106649909 20.18908236612961 C 0.0 **** -0.24
9067 H 98.84883273709164 79.69584634803209 20.67591150954567 H 0.0 **** 0.06
9068 H 97.92684622039347 78.19841364105588 20.945644465489778 H 0.0 **** 0.06
9069 H 98.98445436339252 78.34762578976597 19.521331051906557 H 0.0 **** 0.06
9070 H 97.47840718389675 79.29261497899199 19.614654669971912 H 0.0 **** 0.06
9071 C 68.27238199772316 1.9900871269440614 35.01279785129884 C 0.0 **** -0.24
9072 H 68.5836366933801 3.009914933687668 34.78625762543902 H 0.0 **** 0.06
9073 H 68.01312453489813 1.916123511253943 36.06978874802846 H 0.0 **** 0.06
9074 H 69.08829883981306 1.3028404766012613 34.789839478621076 H 0.0 **** 0.06
9075 H 67.40384664449249 1.732161624370491 34.40637101250405 H 0.0 **** 0.06
9076 C 88.34402747744014 95.39869061766224 93.86143024355482 C 0.0 **** -0.24
9077 H 88.35665801218096 96.04168700044059 92.98095260715809 H 0.0 **** 0.06
9078 H 88.5732763985487 95.9915583456971 94.7469343370687 H 0.0 **** 0.06
9079 H 89.08995275197185 94.61242174691527 93.74743713507274 H 0.0 **** 0.06
9080 H 87.35682621706434 94.9500168547824 93.96906015836436 H 0.0 **** 0.06
9081 C 52.141984549527834 29.97098091148183 121.9595126985389 C 0.0 **** -0.24
9082 H 52.78490791459477 29.326495784359196 121.35961087242265 H 0.0 **** 0.06
9083 H 51.21693644236495 30.167275291114635 121.4164544331461 H 0.0 **** 0.06
9084 H 52.65435649910596 30.911561493443315 122.15792837295737 H 0.0 **** 0.06
9085 H 51.91136580048685 29.47629875929323 122.90327765549793 H 0.0 **** 0.06
9086 C 13.4343650326921 34.5753640904673 33.034210349482684 C 0.0 **** -0.24
9087 H 13.768601775898766 35.59863452025559 32.86691102650534 H 0.0 **** 0.06
9088 H 13.075547151779592 34.47354919487708 34.05848773912177 H 0.0 **** 0.06
9089 H 14.26675802990271 33.89054671457899 32.870929030908165 H 0.0 **** 0.06
9090 H 12.627897572522325 34.338342173321166 32.34072673710632 H 0.0 **** 0.06
9091 C 8.71338178637464 95.73105730108935 101.28549456274371 C 0.0 **** -0.24
9092 H 8.658020439553042 95.01468494451635 102.10546499030085 H 0.0 **** 0.06
9093 H 7.70438301301877 96.00207855179801 100.97184226966361 H 0.0 **** 0.06
9094 H 9.247304308419984 95.28360066264136 100.44763003812768 H 0.0 **** 0.06
9095 H 9.242749282874314 96.62349902650479 101.6192137930528 H 0.0 **** 0.06
9096 C 64.39762942549754 81.86125044005627 120.39599832639848 C 0.0 **** -0.24
9097 H 65.03770958989992 82.07300907825004 121.25192666375756 H 0.0 **** 0.06
9098 H 64.46163679923603 82.68387596379392 119.68311961349977 H 0.0 **** 0.06
9099 H 63.36658726725136 81.74983051858959 120.73191258140484 H 0.0 **** 0.06
9100 H 64.72531692122635 80.93824642449732 119.91771368539239 H 0.0 **** 0.06
9101 C 82.75859903048845 16.49291861776527 97.6636111406913 C 0.0 **** -0.24
9102 H 82.92865045043541 16.358015031419768 98.73221831556125 H 0.0 **** 0.06
9103 H 83.69242355764456 16.334381624270293 97.12492993595092 H 0.0 **** 0.06
9104 H 82.39927773770339 17.505975724973183 97.47863196837085 H 0.0 **** 0.06
9105 H 82.01391850573177 15.775196953183439 97.32119301603106 H 0.0 **** 0.06
9106 C 17.46666933308589 0.7557497585048871 70.60821211577087 C 0.0 **** -0.24
9107 H 16.778748083902116 1.4706725281714466 71.05893982004565 H 0.0 **** 0.06
9108 H 17.928253803517975 0.15386783934586212 71.3912074256335 H 0.0 **** 0.06
9109 H 18.239876276699164 1.2941206603216688 70.05905952895912 H 0.0 **** 0.06
9110 H 16.919612802053592 0.1072876610081881 69.92415674830656 H 0.0 **** 0.06
9111 C 105.72067060863498 3.659338659604245 117.50301158399328 C 0.0 **** -0.24
9112 H 104.75258503605835 3.5711305889657297 117.99578369258656 H 0.0 **** 0.06
9113 H 105.5742772152501 3.970140275877398 116.46843531736604 H 0.0 **** 0.06
9114 H 106.22890777208369 2.6959626809212693 117.52506495454666 H 0.0 **** 0.06
9115 H 106.3269646181513 4.401676438451034 118.02352285470762 H 0.0 **** 0.06
9116 C 58.27119729466108 1.888888798322924 69.06420438284812 C 0.0 **** -0.24
9117 H 58.17876188525156 2.510050386445272 68.1727147647274 H 0.0 **** 0.06
9118 H 59.26486994007479 1.4415400639580866 69.09304018178807 H 0.0 **** 0.06
9119 H 57.51817982791522 1.1011294949827004 69.03713605836242 H 0.0 **** 0.06
9120 H 58.12266554326777 2.503342963114349 69.95230016453581 H 0.0 **** 0.06
9121 C 66.74817729765981 12.627270581465211 119.38629378607422 C 0.0 **** -0.24
9122 H 65.71530603362264 12.589195452756371 119.04163179525082 H 0.0 **** 0.06
9123 H 66.76839172113341 12.864720747843023 120.45021273762461 H 0.0 **** 0.06
9124 H 67.28690817728481 13.396467000567952 118.83212263619524 H 0.0 **** 0.06
9125 H 67.22318401380087 11.66075889617207 119.22044010063257 H 0.0 **** 0.06
9126 C 110.58739638490977 49.58644106907559 83.56286962862865 C 0.0 **** -0.24
9127 H 109.60507569925733 49.31311041201053 83.9470949350472 H 0.0 **** 0.06
9128 H 111.2693492579698 49.75356982497448 84.39746236874421 H 0.0 **** 0.06
9129 H 110.50560006185708 50.49870395413916 82.9716382722402 H 0.0 **** 0.06
9130 H 110.96987682621159 48.78072709826171 82.93661696992945 H 0.0 **** 0.06
9131 C 92.51485111945937 23.439937662125885 110.76969193765382 C 0.0 **** -0.24
9132 H 92.48690520268076 22.563317296614656 111.41691482791427 H 0.0 **** 0.06
9133 H 93.53156937979315 23.83227210561128 110.73381137208969 H 0.0 **** 0.06
9134 H 91.84506710333541 24.203659875485044 111.16508979554808 H 0.0 **** 0.06
9135 H 92.19655583526493 23.16087674881291 109.76584645107968 H 0.0 **** 0.06
9136 C 16.03602348423189 96.35197037379993 41.18761484420503 C 0.0 **** -0.24
9137 H 15.359287298662366 95.88052373869317 41.900520119847585 H 0.0 **** 0.06
9138 H 16.142318671084013 97.40929142786177 41.43241738786213 H 0.0 **** 0.06
9139 H 15.630626400402292 96.2502344252363 40.180991427973964 H 0.0 **** 0.06
9140 H 17.01098061821577 95.8667056933177 41.23792893852848 H 0.0 **** 0.06
9141 C 103.85680669388267 13.576470384552266 100.4062443422132 C 0.0 **** -0.24
9142 H 104.50980151722808 14.389533302183565 100.08875549382222 H 0.0 **** 0.06
9143 H 103.14923556126564 13.346186510810242 99.61042647456699 H 0.0 **** 0.06
9144 H 103.3120715847869 13.87713565519843 101.30223422006378 H 0.0 **** 0.06
9145 H 104.45720265871887 12.69360936789164 100.62610754084886 H 0.0 **** 0.06
9146 C 93.7011391780105 36.41797976581567 58.80172405953107 C 0.0 **** -0.24
9147 H 93.00196063755502 37.225387971544194 58.58617356040628 H 0.0 **** 0.06
9148 H 94.71287489247598 36.81872380673068 58.86126182818987 H 0.0 **** 0.06
9149 H 93.65112075637383 35.672838608954834 58.0084804271367 H 0.0 **** 0.06
9150 H 93.43756334614352 35.95425581165396 59.75217057001703 H 0.0 **** 0.06
9151 C 66.34429186099118 112.8995387492489 83.14235549762827 C 0.0 **** -0.24
9152 H 65.66094829933631 112.11178490759154 82.82357152017659 H 0.0 **** 0.06
9153 H 66.8329042723935 113.33175564734698 82.26922368552073 H 0.0 **** 0.06
9154 H 67.09649835932686 112.4797094360051 83.80944648387646 H 0.0 **** 0.06
9155 H 65.7843914992887 113.67499682482206 83.66684683429719 H 0.0 **** 0.06
9156 C 64.34603933866892 14.428228413166693 98.86939720793447 C 0.0 **** -0.24
9157 H 64.76970730437375 14.003441566746403 97.95916464629164 H 0.0 **** 0.06
9158 H 65.05579084603289 15.129525561535758 99.30828992755613 H 0.0 **** 0.06
9159 H 64.13690667245521 13.629056433503266 99.58022233376278 H 0.0 **** 0.06
9160 H 63.41997569991541 14.951030525677794 98.62823160623674 H 0.0 **** 0.06
9161 C 65.06257045426713 0.6727002292419826 46.090794386298455 C 0.0 **** -0.24
9162 H 64.21438415398205 -0.0030440445903394675 46.19809002700595 H 0.0 **** 0.06
9163 H 65.9759137902775 0.0911870104619652 45.96278240154166 H 0.0 **** 0.06
9164 H 65.14746471156617 1.2932625946524041 46.982810090818106 H 0.0 **** 0.06
9165 H 64.91166306255569 1.3089406214789818 45.21924933339099 H 0.0 **** 0.06
9166 C 45.968734509528076 52.06508211864349 14.650437569314334 C 0.0 **** -0.24
9167 H 45.98591925167415 51.915556257008575 15.729942734699023 H 0.0 **** 0.06
9168 H 45.537646298882834 51.18691415958966 14.169180127391797 H 0.0 **** 0.06
9169 H 46.985444661244486 52.21652739681559 14.288446576141638 H 0.0 **** 0.06
9170 H 45.36516553704365 52.94191914898698 14.415620546641605 H 0.0 **** 0.06
9171 C 108.37040250023671 102.85997236453136 54.82042829151659 C 0.0 **** -0.24
9172 H 109.23325063508054 102.34459705413093 54.39728274920701 H 0.0 **** 0.06
9173 H 108.36605357080902 103.89629246345169 54.4813744740554 H 0.0 **** 0.06
9174 H 108.42856082295307 102.83253907528479 55.90780938709926 H 0.0 **** 0.06
9175 H 107.45648254070699 102.3659392977305 54.49189473466063 H 0.0 **** 0.06
9176 C 106.8723911036609 53.09178857869594 20.71506995427434 C 0.0 **** -0.24
9177 H 107.55588858580204 52.65299463454804 21.44214889563593 H 0.0 **** 0.06
9178 H 107.21923731842293 52.86143306017877 19.7068255181039 H 0.0 **** 0.06
9179 H 106.84380268535213 54.17268437267985 20.85135154418957 H 0.0 **** 0.06
9180 H 105.87400293922374 52.679996967922165 20.85914075677126 H 0.0 **** 0.06
9181 C 34.67455412485049 117.94438396446131 89.51229405700286 C 0.0 **** -0.24
9182 H 33.9472741300303 117.13920682515499 89.62104304581476 H 0.0 **** 0.06
9183 H 34.65421343466519 118.57434726914772 90.40146512428413 H 0.0 **** 0.06
9184 H 34.425578026671474 118.54317237891874 88.6356344331308 H 0.0 **** 0.06
9185 H 35.671021649517996 117.51992037518386 89.39059429793838 H 0.0 **** 0.06
9186 C 40.327405934173385 58.05044136738297 57.16143349554814 C 0.0 **** -0.24
9187 H 40.458648562309065 59.09851219167501 57.43126983040172 H 0.0 **** 0.06
9188 H 40.18221450293305 57.96804462461938 56.08469820528906 H 0.0 **** 0.06
9189 H 39.45523465117964 57.64871458638561 57.678161282446496 H 0.0 **** 0.06
9190 H 41.213528488725956 57.48660094491663 57.45383823498655 H 0.0 **** 0.06
9191 C 37.54204946777469 75.64252859290241 4.905333769919075 C 0.0 **** -0.24
9192 H 37.85705203600796 74.60613323260753 5.021276322805274 H 0.0 **** 0.06
9193 H 36.49049316388309 75.73547688165598 5.181297163358995 H 0.0 **** 0.06
9194 H 37.673242572972214 75.9479804569524 3.867531185049444 H 0.0 **** 0.06
9195 H 38.145272901761956 76.27999205058569 5.550843237319693 H 0.0 **** 0.06
9196 C 93.03950071340152 36.11081355495196 28.6391428135218 C 0.0 **** -0.24
9197 H 92.35080898663584 36.931917810212795 28.835894350256638 H 0.0 **** 0.06
9198 H 93.73627004266056 36.40248486729351 27.85231046911713 H 0.0 **** 0.06
9199 H 92.47742239332112 35.23303164047408 28.32009330891924 H 0.0 **** 0.06
9200 H 93.5949447534809 35.876793745978176 29.547288919389246 H 0.0 **** 0.06
9201 C 42.56548383175071 112.76244561594656 45.352109124128845 C 0.0 **** -0.24
9202 H 41.60403615364795 112.2493511834275 45.370928456015065 H 0.0 **** 0.06
9203 H 42.54653606298501 113.54224203122735 44.59090597945129 H 0.0 **** 0.06
9204 H 43.35385493193326 112.04617424086143 45.11913257407579 H 0.0 **** 0.06
9205 H 42.757161055341705 113.20981193288351 46.32730752242071 H 0.0 **** 0.06
9206 C 88.15485551139398 72.65003589575014 121.98670519335042 C 0.0 **** -0.24
9207 H 88.78495670181081 72.28495974767063 121.17582814448298 H 0.0 **** 0.06
9208 H 87.27085184916541 72.01697936140485 122.07378416837133 H 0.0 **** 0.06
9209 H 87.84880691854971 73.67516971292085 121.77567041823522 H 0.0 **** 0.06
9210 H 88.7134981660069 72.62406971360764 122.92200397915212 H 0.0 **** 0.06
9211 C 91.23723752639734 56.011265099304936 120.76056424749945 C 0.0 **** -0.24
9212 H 92.28298931066102 55.95956122959193 120.4566388430072 H 0.0 **** 0.06
9213 H 90.60372755572358 55.675754200222954 119.93984064733762 H 0.0 **** 0.06
9214 H 90.98443888132077 57.03986378095642 121.01805854030624 H 0.0 **** 0.06
9215 H 91.07909973487592 55.370067188826425 121.6282303312978 H 0.0 **** 0.06
9216 C 110.07417851259453 0.8349162271016723 3.1708760930407607 C 0.0 **** -0.24
9217 H 109.98549331063384 1.4269560358248725 2.259919720272478 H 0.0 **** 0.06
9218 H 109.65048134243631 1.3909017326918303 4.007446803385221 H 0.0 **** 0.06
9219 H 111.12633030031816 0.6265665031204009 3.3671737279335616 H 0.0 **** 0.06
9220 H 109.53517178870067 -0.10400171636545963 3.047606021365908 H 0.0 **** 0.06
9221 C 24.67256308018949 85.5292165211277 9.76140425189098 C 0.0 **** -0.24
9222 H 24.14397789581406 85.10736160613081 8.906799770438369 H 0.0 **** 0.06
9223 H 24.788545841484478 86.60418020565615 9.622160586360138 H 0.0 **** 0.06
9224 H 25.654077574714165 85.06515469431943 9.846940878231521 H 0.0 **** 0.06
9225 H 24.100292513689965 85.34096480593587 10.670759238510215 H 0.0 **** 0.06
9226 C 112.96400467384103 90.39666428709322 8.862310024952876 C 0.0 **** -0.24
9227 H 112.91296688759206 91.40554123739543 9.27152285386002 H 0.0 **** 0.06
9228 H 112.8077659943873 89.6719346749114 9.661788110460666 H 0.0 **** 0.06
9229 H 113.94231913991439 90.23592495987816 8.410808850170842 H 0.0 **** 0.06
9230 H 112.18928276409906 90.27342493559595 8.104486947747365 H 0.0 **** 0.06
9231 C 68.99303974939258 123.51429706768286 37.24706572585137 C 0.0 **** -0.24
9232 H 69.2855968416558 124.55857439159647 37.358187030623995 H 0.0 **** 0.06
9233 H 69.53273431510164 122.90657341746842 37.974039934967564 H 0.0 **** 0.06
9234 H 69.23334405897316 123.17529846492408 36.23929863883348 H 0.0 **** 0.06
9235 H 67.92093099079804 123.4175058285288 37.41784032771873 H 0.0 **** 0.06
9236 C 104.66884881309323 5.464200196323304 99.03220936017556 C 0.0 **** -0.24
9237 H 103.983859655532 5.642160054818234 99.86157832731293 H 0.0 **** 0.06
9238 H 104.2220475042684 4.751116792263261 98.33926681830059 H 0.0 **** 0.06
9239 H 105.60648346828447 5.061069714658245 99.41530829410823 H 0.0 **** 0.06
9240 H 104.86278897983084 6.402984761863564 98.51350380595328 H 0.0 **** 0.06
9241 C 83.7635413385307 70.21634547922184 56.173524246169535 C 0.0 **** -0.24
9242 H 84.22747242417378 70.90730370953145 56.8771401633246 H 0.0 **** 0.06
9243 H 83.3315160715269 70.77729403685458 55.34463124588592 H 0.0 **** 0.06
9244 H 82.97779544040708 69.65487752966465 56.68112738870133 H 0.0 **** 0.06
9245 H 84.51585521225394 69.52558170482854 55.793086422531715 H 0.0 **** 0.06
9246 C 107.6843795978327 18.439562394135976 113.86413547793717 C 0.0 **** -0.24
9247 H 107.32758928316488 18.67615822550667 112.86205177088101 H 0.0 **** 0.06
9248 H 108.0094030627265 19.3543722891867 114.35960727862704 H 0.0 **** 0.06
9249 H 108.52207442587189 17.744985364962872 113.79693529963015 H 0.0 **** 0.06
9250 H 106.87846114164583 17.981849135295164 114.43841394629715 H 0.0 **** 0.06
9251 C 36.764418111616976 120.63074484155152 99.11526724384633 C 0.0 **** -0.24
9252 H 37.59811470546981 120.54776214588696 98.41904781635846 H 0.0 **** 0.06
9253 H 36.545315583532755 119.65150483547762 99.5404022528194 H 0.0 **** 0.06
9254 H 35.8863455227025 121.00273832597037 98.5868979525356 H 0.0 **** 0.06
9255 H 37.02686177980762 121.32318518147912 99.91492178637807 H 0.0 **** 0.06
9256 C 16.258627413511988 104.3310011601463 20.98301368363321 C 0.0 **** -0.24
9257 H 15.861922449845082 103.87485790644087 20.075956785825014 H 0.0 **** 0.06
9258 H 17.2728589996442 103.9714712836386 21.155875619597268 H 0.0 **** 0.06
9259 H 15.627602282918076 104.06110209990315 21.830149752841173 H 0.0 **** 0.06
9260 H 16.270991501333327 105.41440412927045 20.869983744284276 H 0.0 **** 0.06
9261 C 107.94759745150054 66.80937041121018 17.721486571132317 C 0.0 **** -0.24
9262 H 107.41019267371888 65.86216848215297 17.67851793731282 H 0.0 **** 0.06
9263 H 107.50092268622413 67.44639000400599 18.48490873532006 H 0.0 **** 0.06
9264 H 107.88880256528236 67.30524104322623 16.752577294581272 H 0.0 **** 0.06
9265 H 108.9924353734448 66.62125158113783 17.970429898807765 H 0.0 **** 0.06
9266 C 120.74229964394614 122.89561824736079 68.80615487102293 C 0.0 **** -0.24
9267 H 119.74930519064935 122.72919564723576 69.2237470665594 H 0.0 **** 0.06
9268 H 121.39557888432557 122.06699330631685 69.08177910029251 H 0.0 **** 0.06
9269 H 121.15077953879279 123.82729754685909 69.20090251846518 H 0.0 **** 0.06
9270 H 120.67371271662527 122.9602370059343 67.72108996193185 H 0.0 **** 0.06
9271 C 123.61717948707765 21.62282390432656 79.17629064896859 C 0.0 **** -0.24
9272 H 123.96165953418398 21.981207786577684 78.20629622043965 H 0.0 **** 0.06
9273 H 122.7545989956722 20.9704617975341 79.0363644418907 H 0.0 **** 0.06
9274 H 123.33479758664268 22.47210626314051 79.79776679397679 H 0.0 **** 0.06
9275 H 124.41861486267662 21.067498296164636 79.66297687748845 H 0.0 **** 0.06
9276 C 93.7466375212257 48.43522174375198 104.19944628050047 C 0.0 **** -0.24
9277 H 94.4927334083448 48.9085929668081 103.56103471220564 H 0.0 **** 0.06
9278 H 93.93417600622308 47.36205605730214 104.24300621630039 H 0.0 **** 0.06
9279 H 92.75238162689726 48.614818442756416 103.79161678556946 H 0.0 **** 0.06
9280 H 93.80838518498285 48.85553150905673 105.20405601600866 H 0.0 **** 0.06
9281 C 78.42143970544885 111.73279750742002 29.217509844791188 C 0.0 **** -0.24
9282 H 77.81302705510734 111.58585555401538 28.324477998454007 H 0.0 **** 0.06
9283 H 78.62721182126796 112.79528990514399 29.346399077764517 H 0.0 **** 0.06
9284 H 79.3607675075711 111.18997002913656 29.10934169780863 H 0.0 **** 0.06
9285 H 77.88406739125321 111.35777164775773 30.08832801641436 H 0.0 **** 0.06
9286 C 59.882314767208726 5.338263110956717 91.75419604211135 C 0.0 **** -0.24
9287 H 60.39545135149913 4.518844789326181 92.25591516670227 H 0.0 **** 0.06
9288 H 58.81237669382787 5.273873479924021 91.95559185920683 H 0.0 **** 0.06
9289 H 60.055086661467385 5.271450335684989 90.68023579547639 H 0.0 **** 0.06
9290 H 60.26517887138948 6.289417060563636 92.12563918770653 H 0.0 **** 0.06
9291 C 47.138099633027736 114.53288949122359 17.269693498098007 C 0.0 **** -0.24
9292 H 47.0227943965416 113.94217065024417 18.178742279975324 H 0.0 **** 0.06
9293 H 46.562233067613164 114.07547920584913 16.46467344884218 H 0.0 **** 0.06
9294 H 48.19198821496104 114.5657529770132 16.98995137061578 H 0.0 **** 0.06
9295 H 46.77760591724774 115.54547882071803 17.4463534876421 H 0.0 **** 0.06
9296 C 23.03538150228539 120.4782131573972 40.58712661714739 C 0.0 **** -0.24
9297 H 24.053002468779795 120.663698320094 40.24225479680379 H 0.0 **** 0.06
9298 H 22.67530173825199 119.53927906306568 40.16665779045496 H 0.0 **** 0.06
9299 H 22.38873416351541 121.2934947983922 40.264418216463554 H 0.0 **** 0.06
9300 H 23.026676795255327 120.41606187873394 41.67484951332054 H 0.0 **** 0.06
9301 C 2.0889390484225316 97.55362837664653 123.513014935718 C 0.0 **** -0.24
9302 H 1.5482114366714086 97.42878986251728 124.45086762783775 H 0.0 **** 0.06
9303 H 2.5985401827191197 96.6240720882584 123.26110731238391 H 0.0 **** 0.06
9304 H 2.822798313590937 98.35309574503836 123.62091896376863 H 0.0 **** 0.06
9305 H 1.386046458826911 97.80966873863788 122.72002372125816 H 0.0 **** 0.06
9306 C 36.84567925710625 94.62309674639707 46.70403999419057 C 0.0 **** -0.24
9307 H 37.81681938809629 95.0950807172557 46.85149730575676 H 0.0 **** 0.06
9308 H 36.0785097307301 95.3928767338647 46.613092402917246 H 0.0 **** 0.06
9309 H 36.619188044305446 93.9838480111071 47.55715222154475 H 0.0 **** 0.06
9310 H 36.86732016669408 94.02281863107194 45.794889004297275 H 0.0 **** 0.06
9311 C 32.2776092103326 82.33761312946686 55.67085486358742 C 0.0 **** -0.24
9312 H 33.34912272110688 82.53385400803371 55.69194910312578 H 0.0 **** 0.06
9313 H 31.766497308876396 83.16794849748128 55.18159254808411 H 0.0 **** 0.06
9314 H 31.90678033177717 82.23205030583071 56.69026259683655 H 0.0 **** 0.06
9315 H 32.088099466866055 81.41782740512535 55.11774730457718 H 0.0 **** 0.06
9316 C 7.612449619158838 89.32710618001823 59.102263589192304 C 0.0 **** -0.24
9317 H 7.063445699862513 88.50854120317541 59.56768789110163 H 0.0 **** 0.06
9318 H 8.51809723838008 88.93739143728061 58.63613637153635 H 0.0 **** 0.06
9319 H 7.8810038795573405 90.06211359511124 59.86216260042558 H 0.0 **** 0.06
9320 H 6.987271540503542 89.7988116846191 58.344662802752154 H 0.0 **** 0.06
9321 C 73.75271820278164 118.24806036865034 46.29857761476305 C 0.0 **** -0.24
9322 H 73.22817005211738 119.18652736674922 46.47377052462605 H 0.0 **** 0.06
9323 H 74.39647103873705 118.02814297644171 47.15020683646392 H 0.0 **** 0.06
9324 H 74.35923023480291 118.33280132609765 45.3968682197649 H 0.0 **** 0.06
9325 H 73.02696882222523 117.44452992298147 46.17443515815836 H 0.0 **** 0.06
9326 C 6.234640998831111 97.13061687497708 0.06030875757294041 C 0.0 **** -0.24
9327 H 5.377979398589986 97.04704361761571 -0.608716009462583 H 0.0 **** 0.06
9328 H 5.9352342967799245 96.84811775597319 1.0701739191748363 H 0.0 **** 0.06
9329 H 6.594291284774243 98.1596982520141 0.06293788918525678 H 0.0 **** 0.06
9330 H 7.029788472449383 96.46917478307921 -0.28219599599926504 H 0.0 **** 0.06
9331 C 98.27462685067317 45.79841599717568 70.27925221224075 C 0.0 **** -0.24
9332 H 97.5083829171897 45.84347276525975 71.05250881557112 H 0.0 **** 0.06
9333 H 98.3174619119151 46.754385903607016 69.75548174060509 H 0.0 **** 0.06
9334 H 98.03129634154709 45.00649765412007 69.57147098528804 H 0.0 **** 0.06
9335 H 99.24177362652667 45.59227146324841 70.73777184376075 H 0.0 **** 0.06
9336 C 104.1340951435613 123.34183379635894 48.43089661512974 C 0.0 **** -0.24
9337 H 104.42823918992733 123.09389758117551 47.41182864196335 H 0.0 **** 0.06
9338 H 103.84981577576289 124.39299668103455 48.481001973183595 H 0.0 **** 0.06
9339 H 104.9698421999972 123.15850308428243 49.10581097073336 H 0.0 **** 0.06
9340 H 103.28635598529567 122.72281719543295 48.72578220621551 H 0.0 **** 0.06
9341 C 64.60361350829129 62.575458988223346 34.43494512626008 C 0.0 **** -0.24
9342 H 64.38188147378236 61.55900520397522 34.76009480633883 H 0.0 **** 0.06
9343 H 65.179513369002 62.54371563295112 33.50939151783878 H 0.0 **** 0.06
9344 H 65.1834633650945 63.0846438069773 35.20582368949799 H 0.0 **** 0.06
9345 H 63.67219521169079 63.11500611503757 34.265869653766075 H 0.0 **** 0.06
9346 C 94.4696351961922 120.9192846810858 122.42316381862447 C 0.0 **** -0.24
9347 H 94.13205966976378 121.84903702223482 122.8817061666431 H 0.0 **** 0.06
9348 H 95.3883345346967 120.58873862043686 122.90922411375375 H 0.0 **** 0.06
9349 H 94.65752266219968 121.08482723126599 121.3633324378037 H 0.0 **** 0.06
9350 H 93.7005914229938 120.15565818018558 122.54196187985576 H 0.0 **** 0.06
9351 C 61.18884010135669 75.3405422176431 121.1508090933583 C 0.0 **** -0.24
9352 H 60.72348164092564 75.26683249725497 122.13409802724738 H 0.0 **** 0.06
9353 H 61.36561570347767 76.38955812675718 120.91047227134185 H 0.0 **** 0.06
9354 H 60.52763936786651 74.90262475520294 120.40272445960139 H 0.0 **** 0.06
9355 H 62.137429205005816 74.80350890835459 121.15661018390945 H 0.0 **** 0.06
9356 C 47.71562390728701 42.35746614647992 98.23532943419713 C 0.0 **** -0.24
9357 H 48.3129172637768 42.46289135906192 99.14130675636166 H 0.0 **** 0.06
9358 H 47.919327974489704 41.388192760721175 97.77705918752405 H 0.0 **** 0.06
9359 H 47.97288278564952 43.15196038819644 97.53551058237925 H 0.0 **** 0.06
9360 H 46.65689809542113 42.42405419929284 98.48850420556604 H 0.0 **** 0.06
9361 C 111.76133893408033 93.52463614223966 19.76914775182007 C 0.0 **** -0.24
9362 H 112.36530741765415 94.41101812992845 19.57526957756798 H 0.0 **** 0.06
9363 H 110.75034637457708 93.68536051852361 19.394215159795436 H 0.0 **** 0.06
9364 H 111.72561421481313 93.33672278193193 20.843077971919598 H 0.0 **** 0.06
9365 H 112.20411687975906 92.66590388133972 19.26491538309901 H 0.0 **** 0.06
9366 C 106.5066394533797 114.44126291955718 57.17020340288042 C 0.0 **** -0.24
9367 H 106.97444693313605 113.52178931776842 56.81966508309901 H 0.0 **** 0.06
9368 H 106.01506292247663 114.94124960549186 56.33456733809216 H 0.0 **** 0.06
9369 H 107.26852761774472 115.0988858456999 57.589907193879824 H 0.0 **** 0.06
9370 H 105.76818080592895 114.20448867595815 57.93684839609267 H 0.0 **** 0.06
9371 C 51.122008189924856 6.152515101540644 8.771742195297207 C 0.0 **** -0.24
9372 H 50.48522843325733 7.011001027799807 8.98442539282253 H 0.0 **** 0.06
9373 H 51.636133557106774 6.307347438477564 7.822800259178464 H 0.0 **** 0.06
9374 H 50.509218737595205 5.2524370588027125 8.710501842326366 H 0.0 **** 0.06
9375 H 51.85646223504622 6.03915887455824 9.569158228959452 H 0.0 **** 0.06
9376 C 75.8585328480205 60.18479312330207 119.3619305619917 C 0.0 **** -0.24
9377 H 76.88144969477496 60.45503445131452 119.62398295005104 H 0.0 **** 0.06
9378 H 75.60216398169288 60.62612761619397 118.39871480908124 H 0.0 **** 0.06
9379 H 75.1774804996962 60.5577119474883 120.12570006704976 H 0.0 **** 0.06
9380 H 75.77494465797112 59.100293857225424 119.29815741211121 H 0.0 **** 0.06
9381 C 113.7755548377843 97.04846609612899 113.33519237060564 C 0.0 **** -0.24
9382 H 114.47507648074647 96.25963396177261 113.05829157539549 H 0.0 **** 0.06
9383 H 114.31296967522917 97.84810426965143 113.84576247815625 H 0.0 **** 0.06
9384 H 113.01266839387822 96.64132054476862 113.99864355311246 H 0.0 **** 0.06
9385 H 113.30206914189851 97.44542437359445 112.43752533862975 H 0.0 **** 0.06
9386 C 114.55002022791294 118.08928868504637 29.74172705987695 C 0.0 **** -0.24
9387 H 114.19026248912004 118.80677559223705 29.003329682864944 H 0.0 **** 0.06
9388 H 113.88467354479317 117.22488790619803 29.762388855220763 H 0.0 **** 0.06
9389 H 114.56818734182559 118.5586427371934 30.725577893431534 H 0.0 **** 0.06
9390 H 115.55644531538411 117.76699395027111 29.474301623682607 H 0.0 **** 0.06
9391 C 45.477569554640525 113.52391309713343 113.40006646157178 C 0.0 **** -0.24
9392 H 45.63347532341129 113.50893348241999 112.32100865400793 H 0.0 **** 0.06
9393 H 45.872510988912296 114.4534954971378 113.81119002813173 H 0.0 **** 0.06
9394 H 45.99390754155971 112.67750979531058 113.85397646492717 H 0.0 **** 0.06
9395 H 44.41090970388531 113.4560420039636 113.61330569466367 H 0.0 **** 0.06
9396 C 19.961494556925828 122.13369377596372 60.76721581435595 C 0.0 **** -0.24
9397 H 20.30375785603536 121.19851422261644 60.32394078769882 H 0.0 **** 0.06
9398 H 20.631404331780033 122.41620883116835 61.57984542877209 H 0.0 **** 0.06
9399 H 18.95193269621913 122.00257369506457 61.15799597665358 H 0.0 **** 0.06
9400 H 19.958856692512626 122.91580020244515 60.0081688640027 H 0.0 **** 0.06
9401 C 24.680085784117978 75.33784940531476 2.5118782011365184 C 0.0 **** -0.24
9402 H 24.389304191849988 74.56473770631362 3.2230842695697675 H 0.0 **** 0.06
9403 H 25.00435369097363 74.8719520030784 1.5813366152537522 H 0.0 **** 0.06
9404 H 25.498906994542722 75.9240954445431 2.929327755892249 H 0.0 **** 0.06
9405 H 23.829148102122474 75.9905595219931 2.3155307976409034 H 0.0 **** 0.06
9406 C 9.603958786437687 69.78832841553245 122.94796635142983 C 0.0 **** -0.24
9407 H 9.8659401706321 69.0943401959322 123.74601820493712 H 0.0 **** 0.06
9408 H 10.433788086061242 70.47564639979348 122.77711219643822 H 0.0 **** 0.06
9409 H 8.717188800133243 70.35396488348991 123.23520340083783 H 0.0 **** 0.06
9410 H 9.399073274822896 69.23070850210294 122.03393589204931 H 0.0 **** 0.06
9411 C 39.942668649552445 1.7315692643932046 104.72147445622926 C 0.0 **** -0.24
9412 H 40.10389655157678 0.6559076777826522 104.66366157138498 H 0.0 **** 0.06
9413 H 40.8870139799792 2.2287200821984765 104.94478076247606 H 0.0 **** 0.06
9414 H 39.22263864228853 1.9489798884423042 105.51077994147198 H 0.0 **** 0.06
9415 H 39.55803611582223 2.0938089734237852 103.76804385102349 H 0.0 **** 0.06
9416 C 24.214645890762768 74.53448651153393 121.70597603206015 C 0.0 **** -0.24
9417 H 24.636442137628677 74.2618590870539 120.73789184588536 H 0.0 **** 0.06
9418 H 24.46998780602135 75.57001341045223 121.9334607948888 H 0.0 **** 0.06
9419 H 24.623808024205147 73.88202353547926 122.4761967972668 H 0.0 **** 0.06
9420 H 23.130836536451298 74.42491789147954 121.67370087227035 H 0.0 **** 0.06
9421 C 103.6495079886034 48.95689167284955 113.28423539749852 C 0.0 **** -0.24
9422 H 103.51092048795627 49.00080559447592 114.36438111251309 H 0.0 **** 0.06
9423 H 103.82090980784375 49.96327761702091 112.89944250473616 H 0.0 **** 0.06
9424 H 102.7574082276873 48.53721846843165 112.82007800179622 H 0.0 **** 0.06
9425 H 104.50997610952996 48.32808356591869 113.05358255656924 H 0.0 **** 0.06
9426 C 28.281625076098095 76.70027393311793 61.01516463772788 C 0.0 **** -0.24
9427 H 28.952872699896602 76.87135145789006 60.17318966747399 H 0.0 **** 0.06
9428 H 27.98564071115723 75.65142832831077 61.03513609221628 H 0.0 **** 0.06
9429 H 27.39571552093018 77.32590554478304 60.90472428220744 H 0.0 **** 0.06
9430 H 28.792338670492413 76.95226433053853 61.9434884306348 H 0.0 **** 0.06
9431 C 3.471371469357255 46.249239116595504 81.20976034812153 C 0.0 **** -0.24
9432 H 3.305023576682059 46.37239018241516 82.27943826420196 H 0.0 **** 0.06
9433 H 4.20216575322339 45.45765787320917 81.0432774012061 H 0.0 **** 0.06
9434 H 3.845612795264529 47.18367992640739 80.79017296309658 H 0.0 **** 0.06
9435 H 2.5316988267906364 45.984302401832636 80.7241837680941 H 0.0 **** 0.06
9436 C 58.66515804725333 118.47436583682486 24.40193318143963 C 0.0 **** -0.24
9437 H 57.862190618407226 118.38553287490925 23.669334528025104 H 0.0 **** 0.06
9438 H 58.8140222985046 119.52548170885689 24.65111508014803 H 0.0 **** 0.06
9439 H 59.58476013353612 118.06659600064361 23.982092168106817 H 0.0 **** 0.06
9440 H 58.39830332485633 117.9206687681654 25.30180027767068 H 0.0 **** 0.06
9441 C 39.835178164288806 99.47364076090177 21.491959874494114 C 0.0 **** -0.24
9442 H 39.74402359739747 100.54852471590266 21.65112043590613 H 0.0 **** 0.06
9443 H 40.00483036426843 98.97877808249486 22.449108692029625 H 0.0 **** 0.06
9444 H 40.673717590876294 99.27514913601658 20.82616013697705 H 0.0 **** 0.06
9445 H 38.91742367273255 99.09353754777574 21.044179903502283 H 0.0 **** 0.06
9446 C 1.806889359333013 95.17833531897571 60.96597560939796 C 0.0 **** -0.24
9447 H 2.0816099761532314 95.89579514063013 61.73892752972279 H 0.0 **** 0.06
9448 H 2.6893811369095033 94.60903235581839 60.670604292123784 H 0.0 **** 0.06
9449 H 1.4108188548403007 95.71039865187748 60.101284654053586 H 0.0 **** 0.06
9450 H 1.0491429578358975 94.49791161156543 61.354281761349625 H 0.0 **** 0.06
9451 C 77.98153035687109 15.299027416874761 9.935594882134637 C 0.0 **** -0.24
9452 H 77.8414519863108 16.337673861506783 9.637883170431792 H 0.0 **** 0.06
9453 H 77.74461479705877 15.190345209278568 10.99390905817961 H 0.0 **** 0.06
9454 H 79.01791255602402 15.008041900264352 9.762089509473753 H 0.0 **** 0.06
9455 H 77.3213703001393 14.660844447046394 9.347619592529782 H 0.0 **** 0.06
9456 C 47.5605490210383 120.70181862532644 91.39466651856287 C 0.0 **** -0.24
9457 H 48.11377840953725 119.87016774250276 90.9582461209884 H 0.0 **** 0.06
9458 H 46.91457289774971 121.14595706423495 90.636482720821 H 0.0 **** 0.06
9459 H 48.2614407827802 121.45186480394598 91.76066126925969 H 0.0 **** 0.06
9460 H 46.952160166083274 120.33790217956306 92.22310635988117 H 0.0 **** 0.06
9461 C 99.90746421053882 85.36540220625326 38.143572549773324 C 0.0 **** -0.24
9462 H 100.34836133951701 86.00565429482728 38.90792830198937 H 0.0 **** 0.06
9463 H 99.42706894460915 85.98386407166223 37.38530938712721 H 0.0 **** 0.06
9464 H 99.16617229759497 84.71066293780419 38.60287370767151 H 0.0 **** 0.06
9465 H 100.68847347186788 84.76180965978247 37.680588415931005 H 0.0 **** 0.06
9466 C 122.84155615724478 20.04492604259059 30.052165413995283 C 0.0 **** -0.24
9467 H 122.24760179095057 19.17066310908163 29.786172503490604 H 0.0 **** 0.06
9468 H 123.83651177480999 19.953317885848037 29.617396588575957 H 0.0 **** 0.06
9469 H 122.92333794507766 20.111532465383874 31.136957569093624 H 0.0 **** 0.06
9470 H 122.35683106971732 20.943108843682126 29.66837640982544 H 0.0 **** 0.06
9471 C 93.31842137953544 120.88439109662616 18.725948199304412 C 0.0 **** -0.24
9472 H 92.23611151757615 120.75128564920665 18.751795821616895 H 0.0 **** 0.06
9473 H 93.71435180320697 120.463290330451 17.802046727940677 H 0.0 **** 0.06
9474 H 93.76632502306018 120.37429516373712 19.579056164089835 H 0.0 **** 0.06
9475 H 93.55413814308179 121.94719494233419 18.772929665124394 H 0.0 **** 0.06
9476 C 42.758676175897875 93.43566971195759 92.98211890316361 C 0.0 **** -0.24
9477 H 42.09058622351759 92.66892990823527 92.59128065495997 H 0.0 **** 0.06
9478 H 43.66399077395229 92.96617652140964 93.36614402864552 H 0.0 **** 0.06
9479 H 42.26034806688574 93.97650612410197 93.78600242857723 H 0.0 **** 0.06
9480 H 43.020282086161245 94.131410812 92.18377219261694 H 0.0 **** 0.06
9481 C 89.14673099382674 0.016055565048995746 106.72833393116535 C 0.0 **** -0.24
9482 H 89.3192502864413 0.7014931771871353 105.89854776459565 H 0.0 **** 0.06
9483 H 90.09304476971388 -0.43765137839072565 107.02633571755698 H 0.0 **** 0.06
9484 H 88.45163990226823 -0.763162985136546 106.41692344637292 H 0.0 **** 0.06
9485 H 88.72574839203611 0.5645256242121945 107.57087944384702 H 0.0 **** 0.06
9486 C 81.46033876948579 40.65382923398484 14.595915727257534 C 0.0 **** -0.24
9487 H 82.39293877904082 40.724638749460915 14.034471124231516 H 0.0 **** 0.06
9488 H 81.01743939429369 41.646304298451675 14.689442162337002 H 0.0 **** 0.06
9489 H 81.66516871236661 40.252323172369024 15.588229322067662 H 0.0 **** 0.06
9490 H 80.76984330162765 39.994421115744146 14.071836963306623 H 0.0 **** 0.06
9491 C 66.01457158474776 87.71037811863656 13.674479208821367 C 0.0 **** -0.24
9492 H 65.96093934726701 86.71458309366469 13.233464917278752 H 0.0 **** 0.06
9493 H 65.31774888440937 88.37213240543966 13.159066606728516 H 0.0 **** 0.06
9494 H 67.02774810647321 88.09824981042881 13.57359044578402 H 0.0 **** 0.06
9495 H 65.74966002507496 87.65398883194015 14.730506597223098 H 0.0 **** 0.06
9496 C 92.05381466030616 107.34123658094477 2.797723365186286 C 0.0 **** -0.24
9497 H 93.0082279453668 107.00679887348318 2.3926525809205224 H 0.0 **** 0.06
9498 H 92.23015383727676 107.97713661987335 3.6652130405558925 H 0.0 **** 0.06
9499 H 91.46209923303968 106.47548260739778 3.0956489168592896 H 0.0 **** 0.06
9500 H 91.51432136558782 107.90480312831683 2.0368630560089187 H 0.0 **** 0.06
9501 C 48.41467714971046 116.55649544842402 109.40934273779233 C 0.0 **** -0.24
9502 H 48.02595485758124 115.54040710877655 109.33684301414391 H 0.0 **** 0.06
9503 H 49.182833947415276 116.70639263613373 108.6501090973177 H 0.0 **** 0.06
9504 H 48.84567510416886 116.7113232741807 110.39818791517636 H 0.0 **** 0.06
9505 H 47.60373978234972 117.2670465918255 109.25020961410415 H 0.0 **** 0.06
9506 C 88.24915312683093 68.86132526840349 52.45655533472706 C 0.0 **** -0.24
9507 H 87.80933047220638 69.01216016391523 53.44270674568378 H 0.0 **** 0.06
9508 H 87.48481915805091 68.49442520387697 51.77059345413443 H 0.0 **** 0.06
9509 H 89.05592326590093 68.13247571130862 52.52608166226676 H 0.0 **** 0.06
9510 H 88.64460844923556 69.80770687940971 52.08718470724381 H 0.0 **** 0.06
9511 C 54.635715337378784 11.730570359160652 109.62134344953816 C 0.0 **** -0.24
9512 H 55.06354412861229 11.500843085036252 110.59715419322225 H 0.0 **** 0.06
9513 H 54.94083254057972 10.969552882936057 108.90286128589891 H 0.0 **** 0.06
9514 H 54.98942545230396 12.706413427970915 109.29033271730782 H 0.0 **** 0.06
9515 H 53.54830664690974 11.744131072036453 109.6963045228364 H 0.0 **** 0.06
9516 C 123.48431633725431 81.76429064472465 109.67839115989617 C 0.0 **** -0.24
9517 H 124.25269061878024 82.29685205529978 110.24055761126752 H 0.0 **** 0.06
9518 H 122.52582802533453 82.26767380350925 109.8086766550393 H 0.0 **** 0.06
9519 H 123.41086722166747 80.74042476137855 110.04326993334874 H 0.0 **** 0.06
9520 H 123.74966311315413 81.75544166271985 108.62043720076139 H 0.0 **** 0.06
9521 C 101.65087309031716 56.92726860075612 78.36112867476518 C 0.0 **** -0.24
9522 H 100.58725296009841 56.87317603496405 78.59517774595491 H 0.0 **** 0.06
9523 H 101.90965219824493 57.9503330330613 78.08738559741079 H 0.0 **** 0.06
9524 H 101.87265446422043 56.260301322769976 77.52881604824752 H 0.0 **** 0.06
9525 H 102.23006983802524 56.626625325988925 79.23361042300101 H 0.0 **** 0.06
9526 C 35.704400860460936 36.02536081142398 38.36452168156316 C 0.0 **** -0.24
9527 H 35.678056182889236 37.087685331947284 38.11906832202078 H 0.0 **** 0.06
9528 H 36.134997244518786 35.89354100754778 39.35755292136088 H 0.0 **** 0.06
9529 H 36.31349598286758 35.49834135195303 37.62993040564791 H 0.0 **** 0.06
9530 H 34.6901481954484 35.6255059975843 38.351544712391586 H 0.0 **** 0.06
9531 C 60.18858388946656 33.21302237763558 92.73006305603946 C 0.0 **** -0.24
9532 H 60.58702463126083 32.457030821797666 93.40684253334837 H 0.0 **** 0.06
9533 H 59.11066030806988 33.2940032083592 92.87077401557923 H 0.0 **** 0.06
9534 H 60.401944928103845 32.9269672534093 91.69985566380768 H 0.0 **** 0.06
9535 H 60.656706603803855 34.17453262336581 92.94412134630528 H 0.0 **** 0.06
9536 C 66.94839133050455 120.22329785806264 91.54360134870767 C 0.0 **** -0.24
9537 H 67.0687079088147 119.26698685203868 91.03598553771717 H 0.0 **** 0.06
9538 H 66.80157191376611 121.01147889250853 90.80400110968301 H 0.0 **** 0.06
9539 H 67.84055906799507 120.43821463058495 92.13178942828192 H 0.0 **** 0.06
9540 H 66.08012015684778 120.1778798332231 92.2020511605831 H 0.0 **** 0.06
9541 C 86.84373251284397 67.81229339299668 1.0827339487817795 C 0.0 **** -0.24
9542 H 86.41419870683838 67.53636062850842 0.11868694312057926 H 0.0 **** 0.06
9543 H 87.82653618534916 68.25654994509267 0.9287154285561741 H 0.0 **** 0.06
9544 H 86.94022840582494 66.92233958999986 1.7044706025286445 H 0.0 **** 0.06
9545 H 86.19162500239266 68.532834412879 1.5775361337266247 H 0.0 **** 0.06
9546 C 85.24994442475982 29.09230138797181 86.91258447473683 C 0.0 **** -0.24
9547 H 86.07495924016158 28.520132860433968 86.48883996466019 H 0.0 **** 0.06
9548 H 84.47547704100226 28.40930490362286 87.26066743282674 H 0.0 **** 0.06
9549 H 84.83724035202694 29.753563445516924 86.15071011267216 H 0.0 **** 0.06
9550 H 85.61402461230094 29.68765205248439 87.75057252377842 H 0.0 **** 0.06
9551 C 93.90121110937037 73.4960322716778 107.86222587649647 C 0.0 **** -0.24
9552 H 93.66029106173815 73.98725994482197 108.80548123065537 H 0.0 **** 0.06
9553 H 93.25565278158801 72.62767239710628 107.7298918608981 H 0.0 **** 0.06
9554 H 94.94263839045293 73.17642064680747 107.87385634438942 H 0.0 **** 0.06
9555 H 93.74435166255971 74.19393540486831 107.03959591514456 H 0.0 **** 0.06
9556 C 0.4702264548460562 89.22815204404066 85.99970343703774 C 0.0 **** -0.24
9557 H 0.09674289989527551 89.99016135999283 85.31587193292151 H 0.0 **** 0.06
9558 H -0.3667359007922357 88.78461508762749 86.54113008248498 H 0.0 **** 0.06
9559 H 1.1611214750066523 89.6844724236319 86.70830873408738 H 0.0 **** 0.06
9560 H 0.9874035556124312 88.45394338718405 85.43365885846447 H 0.0 **** 0.06
9561 C 47.91490213793468 6.019802156267929 48.06842579740846 C 0.0 **** -0.24
9562 H 47.073247038283206 5.545487201873357 47.562469483862 H 0.0 **** 0.06
9563 H 48.61557500229844 5.254624396060706 48.40323061012862 H 0.0 **** 0.06
9564 H 47.55071106156914 6.582054425419813 48.92908079633991 H 0.0 **** 0.06
9565 H 48.41789452458339 6.69752700828829 47.37791769085114 H 0.0 **** 0.06
9566 C 12.542094784941355 98.4102124660246 58.022783982048225 C 0.0 **** -0.24
9567 H 12.050871263400396 97.5650545140058 57.5391464422423 H 0.0 **** 0.06
9568 H 11.929870928723332 98.7570273478394 58.85575405323053 H 0.0 **** 0.06
9569 H 12.666643143608582 99.21836918298953 57.302242436718444 H 0.0 **** 0.06
9570 H 13.518789096442504 98.09844912362422 58.39341124522568 H 0.0 **** 0.06
9571 C 82.12525863328129 65.7236579374026 106.50680006847222 C 0.0 **** -0.24
9572 H 81.10645144733036 65.39275266026422 106.30705952973382 H 0.0 **** 0.06
9573 H 82.13545693715298 66.80467556935088 106.64661991376875 H 0.0 **** 0.06
9574 H 82.76412666441796 65.45984073806264 105.66441904348737 H 0.0 **** 0.06
9575 H 82.49512635518545 65.23653894124155 107.40965427572134 H 0.0 **** 0.06
9576 C 31.307437460094995 61.54905704816909 115.15556234598745 C 0.0 **** -0.24
9577 H 32.04500328369765 60.93255811594247 114.64034054335268 H 0.0 **** 0.06
9578 H 31.76206836874114 62.4987354752208 115.43704824905403 H 0.0 **** 0.06
9579 H 30.961998832859763 61.03147018710425 116.05002232786194 H 0.0 **** 0.06
9580 H 30.462022589864738 61.73297844886386 114.49239695526211 H 0.0 **** 0.06
9581 C 36.531953819200616 68.9006034187019 81.19355926658228 C 0.0 **** -0.24
9582 H 37.052336322880265 69.52692135642434 80.46890100012855 H 0.0 **** 0.06
9583 H 37.24909174441119 68.24130626264323 81.68383391314266 H 0.0 **** 0.06
9584 H 35.778848468728135 68.3023405970861 80.68128140944712 H 0.0 **** 0.06
9585 H 36.049341994157764 69.53145707224502 81.93860898835456 H 0.0 **** 0.06
9586 C 53.0571760395204 57.517276557188396 95.26880752099157 C 0.0 **** -0.24
9587 H 52.39760058684419 57.350621073094175 96.12099466535187 H 0.0 **** 0.06
9588 H 53.9541585801568 58.04050863362232 95.60187401036023 H 0.0 **** 0.06
9589 H 52.54092435634507 58.119490647084234 94.52208198538642 H 0.0 **** 0.06
9590 H 53.33641027430966 56.557688914263366 94.83314534632723 H 0.0 **** 0.06
9591 C 49.297458325939516 77.76749131205514 22.475973416146246 C 0.0 **** -0.24
9592 H 49.91949183062232 77.93271345323336 21.59659429450585 H 0.0 **** 0.06
9593 H 48.585808650345854 76.9671849853222 22.27053173241751 H 0.0 **** 0.06
9594 H 48.756799503918785 78.6822298247522 22.71593407998148 H 0.0 **** 0.06
9595 H 49.92793376683946 77.48519353231046 23.319109459310823 H 0.0 **** 0.06
9596 C 59.66874651124468 66.26957430886802 45.754288942267465 C 0.0 **** -0.24
9597 H 60.73991103282114 66.07713395239983 45.694197507672214 H 0.0 **** 0.06
9598 H 59.39283668122519 67.02463127336802 45.018427247968816 H 0.0 **** 0.06
9599 H 59.42050816036328 66.6272090651749 46.754592855170046 H 0.0 **** 0.06
9600 H 59.12234790868072 65.34817133484398 45.55263865402284 H 0.0 **** 0.06
9601 C 74.84204433554109 87.78048401126908 66.13425606754538 C 0.0 **** -0.24
9602 H 75.71912976153021 87.22204686209662 65.80599572116168 H 0.0 **** 0.06
9603 H 74.61710018263977 87.52701497760717 67.17012443352363 H 0.0 **** 0.06
9604 H 73.99096323871618 87.52371683412932 65.50334141230766 H 0.0 **** 0.06
9605 H 75.0424523019048 88.84950165259245 66.05563232775268 H 0.0 **** 0.06
9606 C 92.54160320224263 71.86132063644912 76.3656767716266 C 0.0 **** -0.24
9607 H 91.45718431951038 71.75109802814362 76.37936549288236 H 0.0 **** 0.06
9608 H 92.99581835798475 70.94273199202979 75.99383780564084 H 0.0 **** 0.06
9609 H 92.89968017152086 72.06152770851342 77.37596176427412 H 0.0 **** 0.06
9610 H 92.81352935370934 72.69132117410001 75.71364228106438 H 0.0 **** 0.06
9611 C 69.12311569963089 67.30945168168049 67.46900524065202 C 0.0 **** -0.24
9612 H 68.18052474727409 67.7982721546429 67.7138143677629 H 0.0 **** 0.06
9613 H 69.94345181497312 67.83316435783969 67.96000667529492 H 0.0 **** 0.06
9614 H 69.27352904570893 67.32923956813197 66.38926313603136 H 0.0 **** 0.06
9615 H 69.09491941359045 66.27485165759668 67.81203950652088 H 0.0 **** 0.06
9616 C 73.14467574902017 44.16010870757228 56.368022933136515 C 0.0 **** -0.24
9617 H 73.58716655947524 44.24847223947171 55.37640283835431 H 0.0 **** 0.06
9618 H 73.91199198368145 43.86413517630717 57.083132822134274 H 0.0 **** 0.06
9619 H 72.35664749985733 43.408276672411574 56.348588508096896 H 0.0 **** 0.06
9620 H 72.72294130191096 45.12093964038655 56.66370469141749 H 0.0 **** 0.06
9621 C 22.775855884970397 26.706820292665668 122.23240560182376 C 0.0 **** -0.24
9622 H 23.794215436775126 26.693442138063546 121.84377909211645 H 0.0 **** 0.06
9623 H 22.499746567527765 27.729410487767836 122.49162693481492 H 0.0 **** 0.06
9624 H 22.717802396224634 26.079032573609055 123.12205560353738 H 0.0 **** 0.06
9625 H 22.09218293825738 26.32704534425953 121.47357692350334 H 0.0 **** 0.06
9626 C 61.98438726667142 113.82085220601411 85.79983083478822 C 0.0 **** -0.24
9627 H 62.01243764299022 113.83834836021279 86.88961007881636 H 0.0 **** 0.06
9628 H 61.608106750012354 114.77569128143762 85.43152652380553 H 0.0 **** 0.06
9629 H 61.32642951632012 113.01774230321257 85.46657442376306 H 0.0 **** 0.06
9630 H 62.9891479460931 113.65147074969235 85.41359700753384 H 0.0 **** 0.06
9631 C 119.83058903848135 53.301717080087954 17.116859957203797 C 0.0 **** -0.24
9632 H 119.69345928398513 53.90045908832431 18.016729441774846 H 0.0 **** 0.06
9633 H 120.88325506149522 53.03746338316353 17.012447438094 H 0.0 **** 0.06
9634 H 119.51311697987212 53.87655285497151 16.24575426017193 H 0.0 **** 0.06
9635 H 119.23263299166194 52.39293324260625 17.189559635589575 H 0.0 **** 0.06
9636 C 119.15579841175918 45.3257934362822 7.504003410904261 C 0.0 **** -0.24
9637 H 118.64069955345093 45.7085035571876 8.385503765961744 H 0.0 **** 0.06
9638 H 119.87109707655887 44.56087949370768 7.805353968306235 H 0.0 **** 0.06
9639 H 119.68165980051026 46.14098672616149 7.0077490748340665 H 0.0 **** 0.06
9640 H 118.42652999261018 44.89318050814749 6.818163486513015 H 0.0 **** 0.06
9641 C 23.547362685089837 100.81756232930525 43.24032291463641 C 0.0 **** -0.24
9642 H 23.42270327047825 101.50017236033878 44.08097640323598 H 0.0 **** 0.06
9643 H 24.532124984120742 100.96454578957207 42.797156167920065 H 0.0 **** 0.06
9644 H 22.778095796063553 101.01654598260507 42.49343153982369 H 0.0 **** 0.06
9645 H 23.45506087902973 99.78978433018486 43.590828901317195 H 0.0 **** 0.06
9646 C 44.53671195337497 54.20134971941975 53.25315881660816 C 0.0 **** -0.24
9647 H 45.470763356027355 54.70871162591193 53.012882822793244 H 0.0 **** 0.06
9648 H 43.81063361358253 54.38222022712257 52.461309242442496 H 0.0 **** 0.06
9649 H 44.14814801536317 54.58302891573027 54.197639518656175 H 0.0 **** 0.06
9650 H 44.71773192373281 53.13016845159183 53.34190095573264 H 0.0 **** 0.06
9651 C 96.01627536691535 79.20247546081757 70.7201026250925 C 0.0 **** -0.24
9652 H 95.36206882054069 78.4306326868037 71.12466435852525 H 0.0 **** 0.06
9653 H 96.70875796861031 79.53399681752516 71.49424355364462 H 0.0 **** 0.06
9654 H 95.41525567163336 80.04720549967917 70.3828427583216 H 0.0 **** 0.06
9655 H 96.57848278196587 78.79752512484563 69.87801247992766 H 0.0 **** 0.06
9656 C 91.71492202068762 44.903357994292264 14.678568073679997 C 0.0 **** -0.24
9657 H 92.33664059438661 44.02646467146059 14.496354316228746 H 0.0 **** 0.06
9658 H 91.2911630078527 44.84627085044929 15.681136304381454 H 0.0 **** 0.06
9659 H 90.90976723847211 44.934893172926365 13.944279278438046 H 0.0 **** 0.06
9660 H 92.32188622099545 45.804037295001194 14.589889264550294 H 0.0 **** 0.06
9661 C 57.99181868969983 59.76203641980753 122.04053993275011 C 0.0 **** -0.24
9662 H 57.303875126313145 60.418059421979976 122.57529993651178 H 0.0 **** 0.06
9663 H 58.49082554875547 60.326303901932405 121.25179907151067 H 0.0 **** 0.06
9664 H 57.43561564601636 58.93464100007748 121.59973078017055 H 0.0 **** 0.06
9665 H 58.73471465610389 59.37207372789453 122.73472381952428 H 0.0 **** 0.06
9666 C 14.087397362320218 66.60956060312492 115.59238378362863 C 0.0 **** -0.24
9667 H 13.122124443533863 66.2831483172049 115.98006657318922 H 0.0 **** 0.06
9668 H 14.877428226735333 65.99319930138246 116.02164791862617 H 0.0 **** 0.06
9669 H 14.252866435481081 67.65292015940767 115.86018502979812 H 0.0 **** 0.06
9670 H 14.095859663245477 66.50716388069213 114.50757598120259 H 0.0 **** 0.06
9671 C 82.50471250510195 85.24653550871847 44.020351857571086 C 0.0 **** -0.24
9672 H 81.49311120486593 85.61856355844921 44.1779163345183 H 0.0 **** 0.06
9673 H 82.77815613851065 85.3713613238329 42.97219068192041 H 0.0 **** 0.06
9674 H 82.54917454639282 84.1906734166835 44.28626170289698 H 0.0 **** 0.06
9675 H 83.19958766337582 85.808846600187 44.64634275880452 H 0.0 **** 0.06
9676 C 61.37332489050175 46.40080088395658 8.810753069637855 C 0.0 **** -0.24
9677 H 61.665015593952745 46.833131265544495 7.853966444583534 H 0.0 **** 0.06
9678 H 62.07122531101416 45.607579328254886 9.07932762077462 H 0.0 **** 0.06
9679 H 60.36706319920842 45.98861117742132 8.730929509237399 H 0.0 **** 0.06
9680 H 61.38839764814114 47.17453933996936 9.578910193483438 H 0.0 **** 0.06
9681 C 58.3049744913981 89.26964158373865 64.15591255414242 C 0.0 **** -0.24
9682 H 58.12856925325718 89.6662811792982 63.15558261665163 H 0.0 **** 0.06
9683 H 59.31830839276745 88.8711122464939 64.21434654666865 H 0.0 **** 0.06
9684 H 57.589551407948576 88.47382548672311 64.36266179244512 H 0.0 **** 0.06
9685 H 58.18449956484737 90.06675682270686 64.88916473870162 H 0.0 **** 0.06
9686 C 71.6623671461922 111.40588443812939 17.064777472838756 C 0.0 **** -0.24
9687 H 70.67668714465162 111.04244279108266 17.354554603158647 H 0.0 **** 0.06
9688 H 72.04666931254155 112.06886709144669 17.84056778347565 H 0.0 **** 0.06
9689 H 71.58621760380038 111.9512409311152 16.124192421052697 H 0.0 **** 0.06
9690 H 72.33975873413203 110.56059518178367 16.941147191209097 H 0.0 **** 0.06
9691 C 80.16295734210695 103.61352611099835 45.42057386769588 C 0.0 **** -0.24
9692 H 79.59380835118543 103.935001776337 46.29352495173261 H 0.0 **** 0.06
9693 H 80.7173136052499 104.46057083224565 45.0156860876602 H 0.0 **** 0.06
9694 H 79.4787037530129 103.2311104559306 44.66242014929341 H 0.0 **** 0.06
9695 H 80.86001296631122 102.82750424744958 45.710838896228765 H 0.0 **** 0.06
9696 C 36.84852503404039 51.156916971137576 33.85444568033898 C 0.0 **** -0.24
9697 H 37.322462231303774 51.6308657687095 32.99515251034844 H 0.0 **** 0.06
9698 H 35.88689768369517 50.73982964180317 33.55469957255967 H 0.0 **** 0.06
9699 H 36.694949098611886 51.899084738447755 34.638637118343475 H 0.0 **** 0.06
9700 H 37.49052671378692 50.36018468695323 34.22886545268992 H 0.0 **** 0.06
9701 C 35.4111866246015 63.80694647184549 98.55064867941678 C 0.0 **** -0.24
9702 H 34.67910326355769 64.17346169971057 99.2695667517686 H 0.0 **** 0.06
9703 H 36.1420832119033 63.18154961249883 99.06273131430277 H 0.0 **** 0.06
9704 H 35.91809672619212 64.65260137705627 98.08486795028486 H 0.0 **** 0.06
9705 H 34.90452937529574 63.220751365414344 97.78375725649215 H 0.0 **** 0.06
9706 C 91.09106115058384 70.89359583803528 28.26314328207345 C 0.0 **** -0.24
9707 H 90.97939876097206 69.82163375503254 28.095690030838085 H 0.0 **** 0.06
9708 H 90.21348271544554 71.41327053400877 27.87737643940053 H 0.0 **** 0.06
9709 H 91.98208897144616 71.25051950053953 27.746200680895647 H 0.0 **** 0.06
9710 H 91.1884733038228 71.08667043185616 29.331043432415655 H 0.0 **** 0.06
9711 C 21.77110694856833 120.08946456475579 66.0665615864576 C 0.0 **** -0.24
9712 H 22.15853330675884 119.46403099183348 66.87154073640917 H 0.0 **** 0.06
9713 H 22.321835690374883 121.03005167063438 66.03922130130186 H 0.0 **** 0.06
9714 H 20.714649840800632 120.29245257948457 66.24190111298137 H 0.0 **** 0.06
9715 H 21.88766826105376 119.57085621505038 65.11524223026137 H 0.0 **** 0.06
9716 C 56.65097072465642 103.33153645795268 17.39792939092827 C 0.0 **** -0.24
9717 H 57.66383140508006 103.13991637146697 17.04196344215606 H 0.0 **** 0.06
9718 H 56.37128728325257 102.56925272223906 18.125040372753233 H 0.0 **** 0.06
9719 H 55.959191103537904 103.30388056525163 16.556456410471398 H 0.0 **** 0.06
9720 H 56.612603266704156 104.31500003511236 17.867816729332233 H 0.0 **** 0.06
9721 C 68.49392102259645 103.3840026937275 119.78771388843234 C 0.0 **** -0.24
9722 H 67.8982480224791 103.03227410794958 120.63016352753846 H 0.0 **** 0.06
9723 H 69.18087836767711 104.15959000455888 120.1273661728479 H 0.0 **** 0.06
9724 H 67.83431175762212 103.79225876701585 119.0214682715021 H 0.0 **** 0.06
9725 H 69.06187601908641 102.5513999520611 119.37264822811096 H 0.0 **** 0.06
9726 C 75.703695378738 80.46600926530901 83.60225905656256 C 0.0 **** -0.24
9727 H 74.89706539222804 79.73973695514036 83.49241637230591 H 0.0 **** 0.06
9728 H 76.01233876694255 80.51018186524347 84.64670615732308 H 0.0 **** 0.06
9729 H 75.35379853496246 81.44749820221011 83.28433405910866 H 0.0 **** 0.06
9730 H 76.54976639039502 80.16351069613128 82.98536104607604 H 0.0 **** 0.06
9731 C 8.669202962897742 55.36368852553126 70.56086838392125 C 0.0 **** -0.24
9732 H 9.287420730235652 55.9971801629913 69.9257213293744 H 0.0 **** 0.06
9733 H 8.069539732410703 54.699046797253615 69.93862637873949 H 0.0 **** 0.06
9734 H 8.010526074283291 55.98769435928615 71.1661140044007 H 0.0 **** 0.06
9735 H 9.309127267463595 54.77109373236678 71.21522382467148 H 0.0 **** 0.06
9736 C 30.706273127135688 48.10747488483199 42.99546422937949 C 0.0 **** -0.24
9737 H 31.13553263556092 47.106513169259216 43.03158337601473 H 0.0 **** 0.06
9738 H 31.099932548722727 48.641215567890384 42.130290914633505 H 0.0 **** 0.06
9739 H 30.966820949019187 48.648190906692804 43.905788769702184 H 0.0 **** 0.06
9740 H 29.621483242171806 48.03422935842576 42.91462651681729 H 0.0 **** 0.06
9741 C 116.26510269234399 96.84565646603667 22.680526262574546 C 0.0 **** -0.24
9742 H 117.25076969946392 96.45254952121111 22.92978154003103 H 0.0 **** 0.06
9743 H 115.50088940762384 96.26790734173751 23.20087781450293 H 0.0 **** 0.06
9744 H 116.10675697921926 96.77305375463091 21.604983545286785 H 0.0 **** 0.06
9745 H 116.20320199496223 97.88979238755215 22.986751952696352 H 0.0 **** 0.06
9746 C 49.43994645359274 31.19281958506008 95.75942464832178 C 0.0 **** -0.24
9747 H 49.304577616345 30.176191444088232 95.3895608386909 H 0.0 **** 0.06
9748 H 48.89606112459906 31.313078126956242 96.69657797728377 H 0.0 **** 0.06
9749 H 49.05642667748535 31.900126020872108 95.0238922499729 H 0.0 **** 0.06
9750 H 50.50030721813917 31.379989634992228 95.92689731240614 H 0.0 **** 0.06
9751 C 108.51558298054223 96.42199819042355 93.60789032308051 C 0.0 **** -0.24
9752 H 108.55264683889808 97.31876822794489 92.98888506354018 H 0.0 **** 0.06
9753 H 107.51717808532509 96.31472656676702 94.03266462303256 H 0.0 **** 0.06
9754 H 109.2461796720047 96.5058082235558 94.41169004614895 H 0.0 **** 0.06
9755 H 108.74591820653572 95.54933556858403 92.99676730992647 H 0.0 **** 0.06
9756 C 119.99724016038786 35.12058949318689 62.185468674365026 C 0.0 **** -0.24
9757 H 119.113582199761 35.47599100853478 61.655073445446945 H 0.0 **** 0.06
9758 H 120.70141619384378 34.692276685175315 61.472327771146425 H 0.0 **** 0.06
9759 H 119.70421741088646 34.36026851143753 62.909404014234994 H 0.0 **** 0.06
9760 H 120.46846556767252 35.954334733769244 62.70651879407458 H 0.0 **** 0.06
9761 C 121.0852476274454 6.362186821787191 23.66872871651367 C 0.0 **** -0.24
9762 H 121.6722740036636 5.453382400756567 23.54173585346689 H 0.0 **** 0.06
9763 H 120.27544911864896 6.176452451034095 24.374267392442675 H 0.0 **** 0.06
9764 H 120.6687218809201 6.662969425052523 22.707446847830397 H 0.0 **** 0.06
9765 H 121.72608033304031 7.157627591503854 24.05236300144543 H 0.0 **** 0.06
9766 C 13.683020888986533 92.03768113852823 87.91027755658936 C 0.0 **** -0.24
9767 H 13.825114188175405 92.79260559840655 88.6833533887345 H 0.0 **** 0.06
9768 H 13.980275897791927 91.06214846902155 88.29612107446107 H 0.0 **** 0.06
9769 H 14.293017733547742 92.28673177698882 87.04158119352317 H 0.0 **** 0.06
9770 H 12.63246996488354 92.00882086037292 87.61944495979192 H 0.0 **** 0.06
9771 C 15.349600212772145 106.67414047082517 48.90538973880278 C 0.0 **** -0.24
9772 H 15.954834557414927 105.79673714700243 49.13429042900863 H 0.0 **** 0.06
9773 H 14.533148134737417 106.750265128662 49.62467816283347 H 0.0 **** 0.06
9774 H 14.94007788341571 106.57969964209147 47.899735677274926 H 0.0 **** 0.06
9775 H 15.969287252545541 107.56822606414457 48.96332556115517 H 0.0 **** 0.06
9776 C 60.369845161541974 41.033681130651644 15.062148097772564 C 0.0 **** -0.24
9777 H 59.7227115242014 40.332191987887455 15.58899225199275 H 0.0 **** 0.06
9778 H 60.42741376809357 41.96624425180494 15.623456912209576 H 0.0 **** 0.06
9779 H 59.96167391404484 41.22991329855981 14.070625590323601 H 0.0 **** 0.06
9780 H 61.36772342695939 40.60518941895353 14.966275516226375 H 0.0 **** 0.06
9781 C 122.08391956719213 66.2358385754959 10.931501771926577 C 0.0 **** -0.24
9782 H 122.42484351974576 65.76691742019813 10.00814238996017 H 0.0 **** 0.06
9783 H 122.59053011704408 65.77645465410467 11.780551179104464 H 0.0 **** 0.06
9784 H 121.0073932923642 66.09786843869239 11.031806920518221 H 0.0 **** 0.06
9785 H 122.31281369164026 67.3014841276605 10.903363175719193 H 0.0 **** 0.06
9786 C 103.56194113001425 80.40439506264218 111.31258720029439 C 0.0 **** -0.24
9787 H 102.79921095350983 80.88360217909128 111.92653502917932 H 0.0 **** 0.06
9788 H 103.71199632915562 80.98517787442846 110.40224468577577 H 0.0 **** 0.06
9789 H 103.23967439298937 79.39654909439601 111.05286175675317 H 0.0 **** 0.06
9790 H 104.49726130310853 80.35455949374247 111.87105864600397 H 0.0 **** 0.06
9791 C 20.846252400027595 81.3289182622607 35.458930799017 C 0.0 **** -0.24
9792 H 20.680939894784558 82.31025387351335 35.0121500917225 H 0.0 **** 0.06
9793 H 20.539571948439175 81.35035601844896 36.50412799020873 H 0.0 **** 0.06
9794 H 21.904128359256276 81.07572615553747 35.39483807823626 H 0.0 **** 0.06
9795 H 20.260567196278004 80.58251782228488 34.92292063375044 H 0.0 **** 0.06
9796 C 105.8640099656975 18.488311992495426 42.23494065564779 C 0.0 **** -0.24
9797 H 105.15834411545393 19.177438246814773 42.699420415370696 H 0.0 **** 0.06
9798 H 106.86675101000098 18.91686717773473 42.269009361244116 H 0.0 **** 0.06
9799 H 105.57744347069823 18.318991723616506 41.196623247562286 H 0.0 **** 0.06
9800 H 105.85526056592731 17.541287906789705 42.7736525309989 H 0.0 **** 0.06
9801 C 107.68855695668418 78.24655218228654 112.64316546626397 C 0.0 **** -0.24
9802 H 106.82637440532991 78.39153419614026 113.29416022402575 H 0.0 **** 0.06
9803 H 108.36656634373796 79.09381145489165 112.7433187231862 H 0.0 **** 0.06
9804 H 107.35349368168173 78.16812942762876 111.60868240425663 H 0.0 **** 0.06
9805 H 108.20711234083805 77.32912886649207 112.92723702358627 H 0.0 **** 0.06
9806 C 2.6945819944354312 66.09968802197136 72.25075148404174 C 0.0 **** -0.24
9807 H 2.246066073121728 65.13352194722745 72.48160486287765 H 0.0 **** 0.06
9808 H 1.9143693281779228 66.79999357571853 71.95167614093518 H 0.0 **** 0.06
9809 H 3.410305202907857 65.98386722467151 71.43755502701843 H 0.0 **** 0.06
9810 H 3.2067572436484273 66.48228671551854 73.13403258489495 H 0.0 **** 0.06
9811 C 106.54563025588335 62.27923883792148 39.81002909049283 C 0.0 **** -0.24
9812 H 107.5316506466293 61.81657306219351 39.77318004700183 H 0.0 **** 0.06
9813 H 106.24918347422701 62.58349050841167 38.80541223833734 H 0.0 **** 0.06
9814 H 106.57849968873526 63.15344022192416 40.45976381590475 H 0.0 **** 0.06
9815 H 105.82213579884477 61.56318964515904 40.20085139627122 H 0.0 **** 0.06
9816 C 120.34425213330024 37.57662514011638 124.25467855129696 C 0.0 **** -0.24
9817 H 121.26503755225997 38.14993673613771 124.15218135099767 H 0.0 **** 0.06
9818 H 120.56052107342288 36.62629594174242 124.74152842954763 H 0.0 **** 0.06
9819 H 119.91914711304341 37.39195029670003 123.26781753585172 H 0.0 **** 0.06
9820 H 119.6311241108825 38.14021464560918 124.85729705917029 H 0.0 **** 0.06
9821 C 31.80654383899364 70.02849609120062 97.1643394321433 C 0.0 **** -0.24
9822 H 31.6194111912921 69.56585257902526 96.19560467596924 H 0.0 **** 0.06
9823 H 32.726402860621384 70.61097657102579 97.11733355077192 H 0.0 **** 0.06
9824 H 31.906083194469673 69.25225000819876 97.92341958124953 H 0.0 **** 0.06
9825 H 30.97329945966647 70.68347653742279 97.42103611054463 H 0.0 **** 0.06
9826 C 92.8200199178235 85.95641024372998 31.09401663196701 C 0.0 **** -0.24
9827 H 92.16746629474781 85.57035786819932 31.877744960231993 H 0.0 **** 0.06
9828 H 93.81154181882768 85.51507042855445 31.197143822630707 H 0.0 **** 0.06
9829 H 92.89376479265094 87.04010374821792 31.1841597457595 H 0.0 **** 0.06
9830 H 92.40758008627273 85.7004398398937 30.11869607999401 H 0.0 **** 0.06
9831 C 26.864404694042605 61.04702188729409 98.28051067022106 C 0.0 **** -0.24
9832 H 26.584336296176616 60.06808048300334 98.6690774052597 H 0.0 **** 0.06
9833 H 27.169625376562067 61.69199775991514 99.10369479006067 H 0.0 **** 0.06
9834 H 26.010754088302804 61.49127691910631 97.7674016324183 H 0.0 **** 0.06
9835 H 27.691321212613076 60.9357546467222 97.57912248931063 H 0.0 **** 0.06
9836 C 76.15337468721931 99.59366669631106 9.303011725020212 C 0.0 **** -0.24
9837 H 76.24363574605688 100.58971505189595 8.870882968445983 H 0.0 **** 0.06
9838 H 75.83356649724465 98.89134244652945 8.531799565525489 H 0.0 **** 0.06
9839 H 75.41703167345155 99.61018868938666 10.105941140889627 H 0.0 **** 0.06
9840 H 77.1185958650528 99.28078412733726 9.700853739039928 H 0.0 **** 0.06
9841 C 58.12433939045167 124.15004405027186 42.65320328129633 C 0.0 **** -0.24
9842 H 58.511906318677404 123.45575351514839 41.90810583845294 H 0.0 **** 0.06
9843 H 58.75402461624901 124.11681728421217 43.5424069787646 H 0.0 **** 0.06
9844 H 57.105931361827345 123.86784541496053 42.91748654964641 H 0.0 **** 0.06
9845 H 58.12692712549867 125.16009995182586 42.2434593529471 H 0.0 **** 0.06
9846 C 97.21562446984856 39.30593618297519 57.92998757609048 C 0.0 **** -0.24
9847 H 96.4694088603481 40.02196980774727 57.58659598485144 H 0.0 **** 0.06
9848 H 96.77299953818088 38.6511142155847 58.6808165091621 H 0.0 **** 0.06
9849 H 98.0588085627183 39.84237385751385 58.3657741551344 H 0.0 **** 0.06
9850 H 97.56216968897435 38.70981696241199 57.08506979353321 H 0.0 **** 0.06
9851 C 39.65213417958876 22.347885136460327 20.650037815116264 C 0.0 **** -0.24
9852 H 39.9889267645172 22.71426017903955 19.679799782841542 H 0.0 **** 0.06
9853 H 39.93875546024515 21.302027317488786 20.761345428656455 H 0.0 **** 0.06
9854 H 38.56733290088874 22.43554885040779 20.7145590904492 H 0.0 **** 0.06
9855 H 40.11308376758319 22.93797152423062 21.441315370303585 H 0.0 **** 0.06
9856 C 5.803311098295694 75.48281218871097 95.89751353791972 C 0.0 **** -0.24
9857 H 6.087207195163103 74.52135517158194 96.32709728351665 H 0.0 **** 0.06
9858 H 6.167245200020318 75.54420031577155 94.8723242248049 H 0.0 **** 0.06
9859 H 6.2405582005176825 76.2883106262127 96.48829268085862 H 0.0 **** 0.06
9860 H 4.717060451802581 75.57634431345355 95.90422290089094 H 0.0 **** 0.06
9861 C 89.65064867534296 31.325463085553224 65.97245069307834 C 0.0 **** -0.24
9862 H 89.36151359677648 32.13189225682595 66.64674931543735 H 0.0 **** 0.06
9863 H 88.7834067219372 30.69965274644437 65.762221027543 H 0.0 **** 0.06
9864 H 90.42911499360399 30.723034130988026 66.44120892847346 H 0.0 **** 0.06
9865 H 90.02943211498213 31.74886285639184 65.04201344853948 H 0.0 **** 0.06
9866 C 84.07222826779041 69.34710064474967 102.30986512139847 C 0.0 **** -0.24
9867 H 83.19743645952536 69.20797362851039 101.67501029644896 H 0.0 **** 0.06
9868 H 83.80945377654248 69.9855984845193 103.15482187812259 H 0.0 **** 0.06
9869 H 84.8688291532015 69.81675541464767 101.73389197209141 H 0.0 **** 0.06
9870 H 84.41102274807058 68.37848771654541 102.67840418398609 H 0.0 **** 0.06
9871 C 123.73978014221476 35.112015897114475 56.19082486331749 C 0.0 **** -0.24
9872 H 123.79903867993409 34.17324097224184 56.74286458221482 H 0.0 **** 0.06
9873 H 123.20478373609264 35.85096393339029 56.78678150277342 H 0.0 **** 0.06
9874 H 123.2090531061382 34.946935757237895 55.25295008986413 H 0.0 **** 0.06
9875 H 124.7460801072026 35.47280399628727 55.98061312308202 H 0.0 **** 0.06
9876 C 5.515528227693494 72.02128436817475 33.13080701162784 C 0.0 **** -0.24
9877 H 5.4662880903672715 71.72737758637878 32.08199198600835 H 0.0 **** 0.06
9878 H 6.192161113835056 72.86880550668678 33.2392346480616 H 0.0 **** 0.06
9879 H 5.881964328735876 71.18511626371448 33.72622886663555 H 0.0 **** 0.06
9880 H 4.520363231205863 72.30337909482739 33.475708365836965 H 0.0 **** 0.06
9881 C 119.07625142803948 1.5477605810469868 88.45329841599391 C 0.0 **** -0.24
9882 H 120.13947421102077 1.394646795269125 88.26482491794428 H 0.0 **** 0.06
9883 H 118.49778690874618 0.8293415497302021 87.8714946143806 H 0.0 **** 0.06
9884 H 118.79870047082446 2.560632231364366 88.16167162169518 H 0.0 **** 0.06
9885 H 118.87189623687098 1.4058034431420197 89.51450708186792 H 0.0 **** 0.06
9886 C 90.3452289455043 100.39997000964385 104.9733507891719 C 0.0 **** -0.24
9887 H 90.32418497757926 100.29014237989813 106.05687543861082 H 0.0 **** 0.06
9888 H 91.22804022571965 100.9710178562685 104.68356918457926 H 0.0 **** 0.06
9889 H 89.44844565897354 100.92540472576096 104.64397586599505 H 0.0 **** 0.06
9890 H 90.3804845076043 99.41455747548278 104.50835088427984 H 0.0 **** 0.06
9891 C 41.43937924648765 87.49209531680981 108.58257255736066 C 0.0 **** -0.24
9892 H 42.50754018789644 87.45575187819142 108.80013897563327 H 0.0 **** 0.06
9893 H 41.26429274408167 88.15091297144212 107.73198644971109 H 0.0 **** 0.06
9894 H 40.904495364437196 87.87087603458815 109.45263808736945 H 0.0 **** 0.06
9895 H 41.083561095274774 86.48951367635212 108.3447444319844 H 0.0 **** 0.06
9896 C 96.52499494002382 121.4087933370991 32.05047302048618 C 0.0 **** -0.24
9897 H 95.73308121156174 122.14707429046035 31.91884603535837 H 0.0 **** 0.06
9898 H 97.03386291377035 121.58852415123965 32.99823828795431 H 0.0 **** 0.06
9899 H 97.23932877770301 121.49291613350039 31.23268262875547 H 0.0 **** 0.06
9900 H 96.09132434938343 120.40883287481707 32.05402188764748 H 0.0 **** 0.06
9901 C 11.484600885064623 50.28633510547698 6.287877022371788 C 0.0 **** -0.24
9902 H 11.171743071774301 50.052388945570456 7.305542437970075 H 0.0 **** 0.06
9903 H 12.529981053117552 50.59604336025377 6.292760016940974 H 0.0 **** 0.06
9904 H 10.86821417458961 51.094047523980876 5.894265876535883 H 0.0 **** 0.06
9905 H 11.370095601757384 49.40231091738903 5.660368060844974 H 0.0 **** 0.06
9906 C 100.90978604337843 82.01522497716553 62.931548787381985 C 0.0 **** -0.24
9907 H 99.90316724657465 82.11001089898434 62.52302095386267 H 0.0 **** 0.06
9908 H 100.9122571412239 82.344454864689 63.971316721916864 H 0.0 **** 0.06
9909 H 101.59552242481706 82.63429089044308 62.3524591951559 H 0.0 **** 0.06
9910 H 101.22637888658613 80.97447293342555 62.87888230368068 H 0.0 **** 0.06
9911 C 38.47875554655076 52.19968361250096 107.40972514768794 C 0.0 **** -0.24
9912 H 37.94088960285322 51.92973082217141 108.31806339916885 H 0.0 **** 0.06
9913 H 39.08507046491741 53.08653747308564 107.59638313238136 H 0.0 **** 0.06
9914 H 37.76398852005599 52.40828149202656 106.61348162590461 H 0.0 **** 0.06
9915 H 39.12455245938014 51.37401315101589 107.11180852629722 H 0.0 **** 0.06
9916 C 78.43763135036288 84.39412493463092 42.456441221473085 C 0.0 **** -0.24
9917 H 78.21564033242473 84.06448747567678 41.44141962247784 H 0.0 **** 0.06
9918 H 78.4965105827175 83.5263052866837 43.11469656470729 H 0.0 **** 0.06
9919 H 77.64740717274235 85.05990865984101 42.80267879975969 H 0.0 **** 0.06
9920 H 79.38958767935395 84.92377433833028 42.46699097664259 H 0.0 **** 0.06
9921 C 74.3322339470175 95.20795899527788 28.054384079529605 C 0.0 **** -0.24
9922 H 73.81986745772788 94.26212561433671 28.23146463560372 H 0.0 **** 0.06
9923 H 74.63276149118505 95.64215626266933 29.009103805366024 H 0.0 **** 0.06
9924 H 73.6598936517297 95.8935317895488 27.539007368103135 H 0.0 **** 0.06
9925 H 75.21522108810915 95.03345463571179 27.440023749624856 H 0.0 **** 0.06
9926 C 14.633420370423835 59.36455109251679 26.459882646244807 C 0.0 **** -0.24
9927 H 14.428744379032878 59.201264956465906 27.51814447738238 H 0.0 **** 0.06
9928 H 14.488682718038945 58.432299837951376 25.91397119264508 H 0.0 **** 0.06
9929 H 15.663527575853664 59.70153347755493 26.337891651883865 H 0.0 **** 0.06
9930 H 13.95456400555679 60.12396924281464 26.07089439796283 H 0.0 **** 0.06
9931 C 79.08059294460062 65.84685649018996 4.411712629501373 C 0.0 **** -0.24
9932 H 78.41569823425324 65.5247178127077 5.212806492457037 H 0.0 **** 0.06
9933 H 78.4926447680283 66.29099617123188 3.6078950854601963 H 0.0 **** 0.06
9934 H 79.63020437735565 64.98675948896243 4.0280484812125685 H 0.0 **** 0.06
9935 H 79.78382439876539 66.58495248785783 4.798100458875794 H 0.0 **** 0.06
9936 C 43.97641797657195 106.45653546726058 21.19564422879094 C 0.0 **** -0.24
9937 H 43.70013951922846 105.94750696275187 22.11976217259371 H 0.0 **** 0.06
9938 H 43.24013055436836 106.23109589615035 20.423441146867532 H 0.0 **** 0.06
9939 H 44.958921229097086 106.11377535778564 20.87209741640956 H 0.0 **** 0.06
9940 H 44.005052079936036 107.53239295329641 21.368315781317648 H 0.0 **** 0.06
9941 C 41.780749358543716 5.723616895255418 12.748142102402625 C 0.0 **** -0.24
9942 H 42.08308441717281 4.848995555455311 13.323735455843746 H 0.0 **** 0.06
9943 H 40.69382575571717 5.8079764716668585 12.759512231862175 H 0.0 **** 0.06
9944 H 42.12632893544162 5.619911859938078 11.72026241370483 H 0.0 **** 0.06
9945 H 42.2181784703715 6.618148175007189 13.190843172222458 H 0.0 **** 0.06
9946 C 90.57046177422623 67.35269552438864 70.36933584881902 C 0.0 **** -0.24
9947 H 90.82564212172217 68.25416143946013 69.81222643165731 H 0.0 **** 0.06
9948 H 89.69570699776892 66.88283211963204 69.92009409651098 H 0.0 **** 0.06
9949 H 90.35178330747058 67.61478205252375 71.4046546898943 H 0.0 **** 0.06
9950 H 91.4115320619182 66.65881357563323 70.34020843660144 H 0.0 **** 0.06
9951 C 67.75302189309633 75.37058404793532 88.49422973811963 C 0.0 **** -0.24
9952 H 66.75026527417532 74.99897181355604 88.70584314345004 H 0.0 **** 0.06
9953 H 68.27207187199485 74.66398571837709 87.84702142642175 H 0.0 **** 0.06
9954 H 68.30308263223893 75.47971686530676 89.42874988371688 H 0.0 **** 0.06
9955 H 67.68441587901901 76.3382983673527 87.99776836628585 H 0.0 **** 0.06
9956 C 72.13446120463061 29.080568977331325 107.19572398084779 C 0.0 **** -0.24
9957 H 71.05534935733237 29.055077615689413 107.03908234347898 H 0.0 **** 0.06
9958 H 72.38266222396152 29.895381538766287 107.87688293863783 H 0.0 **** 0.06
9959 H 72.63656029666942 29.237863307755163 106.24142807729874 H 0.0 **** 0.06
9960 H 72.46003547759275 28.13420888593123 107.62670847775104 H 0.0 **** 0.06
9961 C 30.24926342929058 82.25277234019798 20.551789247304157 C 0.0 **** -0.24
9962 H 31.300263514055644 82.06515132642379 20.335479739601624 H 0.0 **** 0.06
9963 H 29.658342746054785 82.09141154123066 19.649772514476695 H 0.0 **** 0.06
9964 H 30.12587772727386 83.2831942673589 20.887271593797152 H 0.0 **** 0.06
9965 H 29.91177732199256 81.57282128893605 21.334239515013905 H 0.0 **** 0.06
9966 C 38.5948139837501 30.89055011197702 41.468718164849236 C 0.0 **** -0.24
9967 H 38.19577657071875 31.865975781467377 41.7467732095987 H 0.0 **** 0.06
9968 H 37.8931448235858 30.38944445234906 40.8011342608267 H 0.0 **** 0.06
9969 H 38.73785380652788 30.288161575154575 42.36501292128662 H 0.0 **** 0.06
9970 H 39.55032745529596 31.020445925885916 40.9609398966474 H 0.0 **** 0.06
9971 C 97.48442071916527 9.14142348034116 82.16540664077439 C 0.0 **** -0.24
9972 H 97.3969682486347 9.69093484151557 81.22898421988066 H 0.0 **** 0.06
9973 H 98.4777313145821 8.696667652288596 82.23363476213211 H 0.0 **** 0.06
9974 H 96.7302023583593 8.355214895627114 82.19801689792376 H 0.0 **** 0.06
9975 H 97.33405461479396 9.823859362614073 83.00283788551616 H 0.0 **** 0.06
9976 C 75.69371853055108 100.02525417665524 71.0496180137721 C 0.0 **** -0.24
9977 H 76.42352555896346 100.68353131374491 70.57635939881366 H 0.0 **** 0.06
9978 H 75.77447650299953 99.02611992308266 70.61927547430356 H 0.0 **** 0.06
9979 H 74.68949690179167 100.41393911590234 70.87979263239484 H 0.0 **** 0.06
9980 H 75.88894009976141 99.97752444602838 72.12048685154122 H 0.0 **** 0.06
9981 C 65.86761952893804 50.52000058888413 26.90185762493556 C 0.0 **** -0.24
9982 H 64.78238414665135 50.42352382438389 26.86179348507386 H 0.0 **** 0.06
9983 H 66.26760953585622 50.54938450661626 25.88773566434199 H 0.0 **** 0.06
9984 H 66.28777154395509 49.665937498046475 27.434393356698877 H 0.0 **** 0.06
9985 H 66.13211076566779 51.43893571513246 27.424348092313153 H 0.0 **** 0.06
9986 C 62.67434409520345 85.04628689283525 95.03800664695936 C 0.0 **** -0.24
9987 H 61.58662455088316 85.01545134550607 95.10436996290917 H 0.0 **** 0.06
9988 H 63.10077488129551 84.99742302718774 96.03970659666388 H 0.0 **** 0.06
9989 H 62.982221984948794 85.97479451684798 94.55643988856332 H 0.0 **** 0.06
9990 H 63.026636216365745 84.19929623871903 94.45030796957238 H 0.0 **** 0.06
9991 C 44.220619457224075 101.86948214402864 65.82320844505499 C 0.0 **** -0.24
9992 H 43.47093778818041 102.62961037047015 66.04452997355202 H 0.0 **** 0.06
9993 H 44.324740568646234 101.76637456769669 64.74249321917242 H 0.0 **** 0.06
9994 H 43.908627398131074 100.91694057284762 66.25200005013558 H 0.0 **** 0.06
9995 H 45.175930316928486 102.1667109410681 66.25405160618031 H 0.0 **** 0.06
9996 C 101.60297342401077 39.62154545540477 36.569588337515896 C 0.0 **** -0.24
9997 H 101.57117300721241 38.53244301570811 36.604074992840715 H 0.0 **** 0.06
9998 H 102.54328544525661 39.94454039548913 36.122853206262825 H 0.0 **** 0.06
9999 H 101.52510057937438 40.01924555959562 37.581560751074804 H 0.0 **** 0.06
10000 H 100.77024362410546 39.99062059390525 35.9702909425243 H 0.0 **** 0.06
10001 C 56.72730881406051 25.566455632117453 17.84031649949037 C 0.0 **** -0.24
10002 H 57.751163697124014 25.872113624915784 18.05794951352928 H 0.0 **** 0.06
10003 H 56.63099201879794 24.491424238551872 17.986710466617126 H 0.0 **** 0.06
10004 H 56.4854360275412 25.816557713461947 16.80665297261541 H 0.0 **** 0.06
10005 H 56.04323949884082 26.088261127030535 18.510129866262105 H 0.0 **** 0.06
10006 C 94.50277385051197 81.84071749383995 75.09417045225584 C 0.0 **** -0.24
10007 H 94.45998200402245 81.41021011775571 76.09496363721175 H 0.0 **** 0.06
10008 H 93.80872517386878 81.31129644348103 74.44182739612339 H 0.0 **** 0.06
10009 H 95.51507690332693 81.74747435949548 74.70179191405711 H 0.0 **** 0.06
10010 H 94.2267159747494 82.89437565588311 75.14082084826828 H 0.0 **** 0.06
10011 C 20.36565194483194 35.329250745372875 90.7229752414503 C 0.0 **** -0.24
10012 H 20.874378920468672 35.362370496244296 91.6868127252974 H 0.0 **** 0.06
10013 H 19.874755446751323 36.28465404455075 90.53836251712919 H 0.0 **** 0.06
10014 H 19.621165585906937 34.53298393890648 90.73307264020846 H 0.0 **** 0.06
10015 H 21.093956686577854 35.136635716249515 89.93512032565198 H 0.0 **** 0.06
10016 C 42.505089689915216 62.582392863243015 2.011407132551909 C 0.0 **** -0.24
10017 H 42.34220886874423 63.264628575097205 1.1763160922000964 H 0.0 **** 0.06
10018 H 42.93441285940808 63.130831666387195 2.8496178345035332 H 0.0 **** 0.06
10019 H 43.18801801374171 61.79067470459168 1.704897886150036 H 0.0 **** 0.06
10020 H 41.55288120493333 62.14501621064154 2.3122565862544207 H 0.0 **** 0.06
10021 C 94.29135368272273 78.27054298828197 92.97284486607774 C 0.0 **** -0.24
10022 H 94.38966450482843 79.34149649983138 92.79542935276345 H 0.0 **** 0.06
10023 H 93.27783170916598 78.0512408237447 93.31102020750993 H 0.0 **** 0.06
10024 H 95.00477781342141 77.9607697783248 93.73666702396794 H 0.0 **** 0.06
10025 H 94.4903570557089 77.72906912140863 92.04796572737493 H 0.0 **** 0.06
10026 C 79.9969658002964 81.64721585365714 107.57659643408077 C 0.0 **** -0.24
10027 H 80.45773245610921 81.28102567006968 108.49461582502475 H 0.0 **** 0.06
10028 H 78.94860768498994 81.35104765028723 107.55420625984267 H 0.0 **** 0.06
10029 H 80.5133379071605 81.2221750448146 106.71675180490378 H 0.0 **** 0.06
10030 H 80.06852371191067 82.73384058361462 107.54369039880696 H 0.0 **** 0.06
10031 C 66.11050320319112 79.01959183568792 108.1296520184793 C 0.0 **** -0.24
10032 H 65.95134326924426 79.76743990940608 108.90644032690142 H 0.0 **** 0.06
10033 H 67.12818570986167 78.63458982365134 108.2002531202591 H 0.0 **** 0.06
10034 H 65.96032043100365 79.4740596326354 107.15083037257551 H 0.0 **** 0.06
10035 H 65.40228974424389 78.20079904503407 108.26275669730092 H 0.0 **** 0.06
10036 C 50.23065955978373 53.31135986199912 88.70238984901172 C 0.0 **** -0.24
10037 H 51.216961765467346 53.62542370927258 89.04286088382545 H 0.0 **** 0.06
10038 H 49.94229706215228 53.9024013314276 87.83290219566922 H 0.0 **** 0.06
10039 H 49.5053110380307 53.461698563519846 89.50150527359128 H 0.0 **** 0.06
10040 H 50.26016752480953 52.25572863816279 88.43154352313329 H 0.0 **** 0.06
10041 C 82.3640485568888 110.31605372970176 107.08294524695363 C 0.0 **** -0.24
10042 H 82.28214250951433 111.04587127368288 107.88916576578917 H 0.0 **** 0.06
10043 H 82.36501107245121 110.83354782979688 106.1235456196661 H 0.0 **** 0.06
10044 H 81.5160749295294 109.63143309672225 107.12676428521786 H 0.0 **** 0.06
10045 H 83.29092293116716 109.7536271693356 107.19490487201718 H 0.0 **** 0.06
10046 C 115.07858863843734 67.52353816521487 39.52595922836963 C 0.0 **** -0.24
10047 H 116.16671722521403 67.49295436786348 39.57206196657876 H 0.0 **** 0.06
10048 H 114.6646480138021 66.85420877715988 40.28059561455785 H 0.0 **** 0.06
10049 H 114.74756031464352 67.20613116026607 38.53774534245986 H 0.0 **** 0.06
10050 H 114.73514312389688 68.54057201666298 39.71539268825791 H 0.0 **** 0.06
10051 C 67.21093689987829 8.981549755548656 35.241143596181985 C 0.0 **** -0.24
10052 H 67.62868942961929 8.110351033813316 34.735475347904696 H 0.0 **** 0.06
10053 H 66.1474904889299 8.823071961047788 35.41956784964569 H 0.0 **** 0.06
10054 H 67.34691051259108 9.863639278888456 34.615455212021004 H 0.0 **** 0.06
10055 H 67.72243346268255 9.129717475593765 36.192848049009314 H 0.0 **** 0.06
10056 C 39.27187887110392 32.10878091735864 113.031133810677 C 0.0 **** -0.24
10057 H 39.96563767296175 32.8887538967987 113.34578061781849 H 0.0 **** 0.06
10058 H 39.176560253485945 32.12364125607552 111.94483076547843 H 0.0 **** 0.06
10059 H 38.2963928384695 32.287003594112825 113.48396203428527 H 0.0 **** 0.06
10060 H 39.64834447732915 31.13652479142376 113.34980825992739 H 0.0 **** 0.06
10061 C 82.37317755360618 103.22729227121255 34.39599587657003 C 0.0 **** -0.24
10062 H 82.23059968034278 102.63766479409827 33.49080050762764 H 0.0 **** 0.06
10063 H 82.2584336198027 102.58466027193151 35.27040012566611 H 0.0 **** 0.06
10064 H 81.63132373976329 104.02380126710324 34.43106627543165 H 0.0 **** 0.06
10065 H 83.37276073108835 103.66112738060991 34.39279618973677 H 0.0 **** 0.06
10066 C 99.22864862221665 100.95286268690411 41.17022498977482 C 0.0 **** -0.24
10067 H 98.982952321026 100.4415940468494 40.238686751877935 H 0.0 **** 0.06
10068 H 99.0565693646574 102.02250910477136 41.05311844451086 H 0.0 **** 0.06
10069 H 100.27660048352723 100.77746095462588 41.41382065221964 H 0.0 **** 0.06
10070 H 98.59961152775793 100.56818112469136 41.97266757876804 H 0.0 **** 0.06
10071 C 53.860969977883144 56.91963102240315 111.30056050464714 C 0.0 **** -0.24
10072 H 54.410421849608326 56.319536065781946 112.02629973003829 H 0.0 **** 0.06
10073 H 54.54199335791185 57.623414103690806 110.82140889095447 H 0.0 **** 0.06
10074 H 53.06852689778961 57.46903703629083 111.80875800804013 H 0.0 **** 0.06
10075 H 53.424129214504205 56.26579020656078 110.54592746382295 H 0.0 **** 0.06
10076 C 99.58882062491054 53.891369274603335 98.50592742865577 C 0.0 **** -0.24
10077 H 98.84879688698135 53.902557556132194 97.70692536807343 H 0.0 **** 0.06
10078 H 100.54798914733507 54.235710326173376 98.11738815158884 H 0.0 **** 0.06
10079 H 99.69575756011002 52.875384396513624 98.88776901812054 H 0.0 **** 0.06
10080 H 99.26476857683264 54.54944524518919 99.31115963538075 H 0.0 **** 0.06
10081 C 12.456232045322622 48.04873622317854 53.161809400611304 C 0.0 **** -0.24
10082 H 13.12519469770261 48.877776501921346 53.39519525400968 H 0.0 **** 0.06
10083 H 11.804054473415391 47.85702917235187 54.013197952693105 H 0.0 **** 0.06
10084 H 13.04586762901343 47.157572335517614 52.946292531351645 H 0.0 **** 0.06
10085 H 11.852930244077768 48.30416687179894 52.290380772201445 H 0.0 **** 0.06
10086 C 25.436054635991525 59.35145409099822 13.646014487706623 C 0.0 **** -0.24
10087 H 25.205275501931965 58.91968101599352 12.672161979050372 H 0.0 **** 0.06
10088 H 26.210377618019123 58.75746955842317 14.133176769096451 H 0.0 **** 0.06
10089 H 24.537297729223155 59.35416027193118 14.263530041764255 H 0.0 **** 0.06
10090 H 25.789955610834596 60.3740814083076 13.51550328542325 H 0.0 **** 0.06
10091 C 32.01995357499064 63.40864216866136 14.750629608016006 C 0.0 **** -0.24
10092 H 32.209484163034574 62.35523892016754 14.545034263294497 H 0.0 **** 0.06
10093 H 31.112235708452687 63.72177604750773 14.23503272872826 H 0.0 **** 0.06
10094 H 32.86301791467275 64.00400475887226 14.39751247575397 H 0.0 **** 0.06
10095 H 31.89740384799225 63.55372324828387 15.823340976802019 H 0.0 **** 0.06
10096 C 110.16664786202358 115.09232020318197 82.27888312063621 C 0.0 **** -0.24
10097 H 109.08436511771623 114.95495185695137 82.29433729465056 H 0.0 **** 0.06
10098 H 110.64568743538132 114.2579278395661 82.79058532602137 H 0.0 **** 0.06
10099 H 110.42105734904032 116.02384408430535 82.78358078206405 H 0.0 **** 0.06
10100 H 110.51231294596334 115.13202837987947 81.24620379744393 H 0.0 **** 0.06
10101 C 82.47441845500904 39.91366596029286 69.79285567221058 C 0.0 **** -0.24
10102 H 83.14571323377518 40.75168085551533 69.60241639095932 H 0.0 **** 0.06
10103 H 82.28875713625294 39.377674635972056 68.86174562753445 H 0.0 **** 0.06
10104 H 81.53109183807933 40.28829986294434 70.19191595949991 H 0.0 **** 0.06
10105 H 82.93290703399398 39.23903635247936 70.51585001511256 H 0.0 **** 0.06
10106 C 3.085406896533371 91.89944007309707 83.96359982255193 C 0.0 **** -0.24
10107 H 3.291180823803174 91.3237314315987 84.86570310359723 H 0.0 **** 0.06
10108 H 2.1978458290268605 92.51439084740512 84.11989033575996 H 0.0 **** 0.06
10109 H 2.913512358879089 91.2188776395096 83.12947527007258 H 0.0 **** 0.06
10110 H 3.9373823724868657 92.54077066447323 83.73903236957062 H 0.0 **** 0.06
10111 C 56.59097929469826 66.61481735489907 96.97536528103211 C 0.0 **** -0.24
10112 H 57.02243489458371 65.74677631745315 96.47641282184387 H 0.0 **** 0.06
10113 H 55.93413058140193 67.14124614698622 96.28253035962086 H 0.0 **** 0.06
10114 H 57.390637424327394 67.2829945941324 97.29683661988588 H 0.0 **** 0.06
10115 H 56.01861917780357 66.28819341255516 97.84336434926539 H 0.0 **** 0.06
10116 C 10.035194104815936 33.98316513822954 21.354863948064803 C 0.0 **** -0.24
10117 H 9.183685338278949 33.72161342212098 21.98107564879851 H 0.0 **** 0.06
10118 H 9.756712855384585 33.89193039834714 20.305041526094925 H 0.0 **** 0.06
10119 H 10.865446713730396 33.31069711046621 21.57008023600119 H 0.0 **** 0.06
10120 H 10.336853172552654 35.01068727602342 21.562851628380486 H 0.0 **** 0.06
10121 C 91.0043900693866 85.59827814679741 72.12214868065729 C 0.0 **** -0.24
10122 H 91.96439465957343 85.80682783913537 71.64951357800086 H 0.0 **** 0.06
10123 H 90.77218442894275 84.53725114190159 72.01860126758686 H 0.0 **** 0.06
10124 H 90.2263198461003 86.19028571077072 71.63937075671097 H 0.0 **** 0.06
10125 H 91.05549487771833 85.85740398642962 73.17923843857596 H 0.0 **** 0.06
10126 C 16.81240339579685 3.4012165206846436 79.29555941091084 C 0.0 **** -0.24
10127 H 15.897863312082109 2.993406827602591 79.7237606328204 H 0.0 **** 0.06
10128 H 16.842272510991307 4.478183279575195 79.46297559734127 H 0.0 **** 0.06
10129 H 16.83436090470414 3.1995966950433683 78.22486711652324 H 0.0 **** 0.06
10130 H 17.67558271519647 2.9360760384460427 79.77083139549401 H 0.0 **** 0.06
10131 C 95.53665739510268 70.4446869949998 113.280325418221 C 0.0 **** -0.24
10132 H 96.19731525087502 70.37083399071571 114.14498125507166 H 0.0 **** 0.06
10133 H 95.2928313863049 69.44376573043432 112.92477628577777 H 0.0 **** 0.06
10134 H 96.03666284690439 71.00169872216871 112.48858989548754 H 0.0 **** 0.06
10135 H 94.62194995586611 70.96251721334302 113.56648411328936 H 0.0 **** 0.06
10136 C 51.60912005818585 54.89127935673372 0.5543429829779427 C 0.0 **** -0.24
10137 H 51.230569230236824 53.96853660089698 0.11257960605914263 H 0.0 **** 0.06
10138 H 52.014652263274456 55.52888948191668 -0.23106051399395255 H 0.0 **** 0.06
10139 H 52.394050576233326 54.653965114336245 1.272340706745581 H 0.0 **** 0.06
10140 H 50.79689227051193 55.40994287535571 1.0619036080618969 H 0.0 **** 0.06
10141 C 13.76706656184615 64.72291082323522 59.98157395658154 C 0.0 **** -0.24
10142 H 13.500823036550102 65.76406146082752 60.16390454463266 H 0.0 **** 0.06
10143 H 13.660059586510656 64.1536277093287 60.90448181064687 H 0.0 **** 0.06
10144 H 14.80025686136004 64.66829643832762 59.637626552854215 H 0.0 **** 0.06
10145 H 13.10827714495474 64.30726389850321 59.21923555682616 H 0.0 **** 0.06
10146 C 60.502619943647176 17.325410695843857 103.08343176873282 C 0.0 **** -0.24
10147 H 59.83033394869119 17.13490507816067 103.92088740194318 H 0.0 **** 0.06
10148 H 59.932951824036195 17.723889350930364 102.24448621017847 H 0.0 **** 0.06
10149 H 60.98572114725175 16.394087789504283 102.7874121866519 H 0.0 **** 0.06
10150 H 61.26118926912028 18.048525726054365 103.38452807516951 H 0.0 **** 0.06
10151 C 96.55821460710203 22.814039965187817 38.157813745757096 C 0.0 **** -0.24
10152 H 96.21640718353402 23.450209416389384 38.974921376941055 H 0.0 **** 0.06
10153 H 97.3056732925319 23.34759882920423 37.57084683959002 H 0.0 **** 0.06
10154 H 95.71186671094503 22.555268960162834 37.521117945561066 H 0.0 **** 0.06
10155 H 96.99781152282546 21.903714285859905 38.566464526844705 H 0.0 **** 0.06
10156 C 60.27669426415048 69.97648133404742 87.9928704482651 C 0.0 **** -0.24
10157 H 60.68527378962773 70.77795160316406 88.60784837737437 H 0.0 **** 0.06
10158 H 59.764496107113644 69.25473277007117 88.62869883355296 H 0.0 **** 0.06
10159 H 61.08693054107238 69.47966327718004 87.45891753100746 H 0.0 **** 0.06
10160 H 59.57139406551303 70.39417366982988 87.27403981596629 H 0.0 **** 0.06
10161 C 80.2891324088559 63.84381266903969 0.41140138268725934 C 0.0 **** -0.24
10162 H 81.34816880743264 63.7253702785394 0.6381412213733597 H 0.0 **** 0.06
10163 H 80.01123364697928 63.161337530816155 -0.39304176606553654 H 0.0 **** 0.06
10164 H 80.09595676182145 64.87018678930244 0.0994622222781203 H 0.0 **** 0.06
10165 H 79.69922502242642 63.61695347499426 1.299544331029253 H 0.0 **** 0.06
10166 C 58.4511262457016 37.308599119116565 94.19018875914541 C 0.0 **** -0.24
10167 H 58.572773045242855 36.22736193929944 94.11594596209615 H 0.0 **** 0.06
10168 H 58.06869239670837 37.56369962589659 95.17801806523562 H 0.0 **** 0.06
10169 H 57.748680143087626 37.647736902671596 93.42917909049756 H 0.0 **** 0.06
10170 H 59.414969352629356 37.793525235004125 94.0370358694392 H 0.0 **** 0.06
10171 C 79.9019948611739 105.56584067432456 112.0616813814437 C 0.0 **** -0.24
10172 H 80.847332750583 106.05885654139806 112.28934859757655 H 0.0 **** 0.06
10173 H 79.6326715749471 105.75882829538384 111.02344372464455 H 0.0 **** 0.06
10174 H 79.12279147724254 105.95482711685324 112.71787067731957 H 0.0 **** 0.06
10175 H 80.00513680803276 104.49230091156548 112.21776402197622 H 0.0 **** 0.06
10176 C 42.953947790776944 111.00378475981009 18.768537212834133 C 0.0 **** -0.24
10177 H 41.87213871621394 111.04350802884522 18.900537061527615 H 0.0 **** 0.06
10178 H 43.425670018749784 110.73473510428792 19.71364944529094 H 0.0 **** 0.06
10179 H 43.315820750726765 111.97953194921533 18.445373080602565 H 0.0 **** 0.06
10180 H 43.19957509655308 110.25633950298388 18.01278352764362 H 0.0 **** 0.06
10181 C 22.153946905544714 23.74893599141894 62.8127229291491 C 0.0 **** -0.24
10182 H 21.149673719550478 23.7895685958447 63.23504637348353 H 0.0 **** 0.06
10183 H 22.8476571391938 23.36574157533955 63.5608498169331 H 0.0 **** 0.06
10184 H 22.460740679291575 24.751286379780908 62.51111875626839 H 0.0 **** 0.06
10185 H 22.15554983449489 23.091714624391486 61.94302975137397 H 0.0 **** 0.06
10186 C 121.64807015815646 43.96918626770959 78.49504727756786 C 0.0 **** -0.24
10187 H 121.18834172761498 43.3095728961287 77.75942804929582 H 0.0 **** 0.06
10188 H 121.1753435676741 43.816889483326165 79.46507095811086 H 0.0 **** 0.06
10189 H 121.51687730065962 45.006965624828375 78.18511137658405 H 0.0 **** 0.06
10190 H 122.71197279240396 43.74425196014535 78.56954859000726 H 0.0 **** 0.06
10191 C 16.10990587089044 43.73576017286259 124.25744577763504 C 0.0 **** -0.24
10192 H 16.134559513953192 44.77163717877521 124.59711588674963 H 0.0 **** 0.06
10193 H 16.001756814739277 43.07458325647687 125.11744205222658 H 0.0 **** 0.06
10194 H 17.036892328372264 43.502803724074795 123.73434821552502 H 0.0 **** 0.06
10195 H 15.266195549168678 43.59451253698949 123.582183096871 H 0.0 **** 0.06
10196 C 119.43821569825403 12.487536094815994 48.31527200789307 C 0.0 **** -0.24
10197 H 119.59236429771056 13.148322117416456 47.461465345058144 H 0.0 **** 0.06
10198 H 118.42387041168053 12.61693503534434 48.69501054179324 H 0.0 **** 0.06
10199 H 120.15432122283826 12.73361766021793 49.098659135644624 H 0.0 **** 0.06
10200 H 119.58024882676676 11.452443428116851 48.003631988991685 H 0.0 **** 0.06
10201 C 97.65424206149531 80.17883308134458 77.52972707993328 C 0.0 **** -0.24
10202 H 98.57658493795478 79.97554567423049 76.9868620114194 H 0.0 **** 0.06
10203 H 97.45286477224595 79.36159682681694 78.22243539362414 H 0.0 **** 0.06
10204 H 96.8283720092046 80.26842985333809 76.82288843608936 H 0.0 **** 0.06
10205 H 97.75823139658951 81.11074698014886 78.08628836193238 H 0.0 **** 0.06
10206 C 120.21240214274289 55.44592916057459 60.63590665064646 C 0.0 **** -0.24
10207 H 120.2020527819673 54.7179636624912 61.44731027908938 H 0.0 **** 0.06
10208 H 120.28152837160428 54.924332319308206 59.68080453140999 H 0.0 **** 0.06
10209 H 121.07014127242846 56.10749223340218 60.752111331695914 H 0.0 **** 0.06
10210 H 119.29393887637443 56.03309776604593 60.66412047104859 H 0.0 **** 0.06
10211 C 81.5634050584331 24.973106261574088 90.57916557261956 C 0.0 **** -0.24
10212 H 80.98749473637687 24.04806646193083 90.58999812449213 H 0.0 **** 0.06
10213 H 81.64595646284849 25.36130530339514 91.59421308986543 H 0.0 **** 0.06
10214 H 81.0585424419375 25.706785254396408 89.94925948419024 H 0.0 **** 0.06
10215 H 82.55893072673352 24.77736653801881 90.1819562311585 H 0.0 **** 0.06
10216 C 51.1330038996266 89.59055008415163 4.48802293079623 C 0.0 **** -0.24
10217 H 51.49582188915599 89.33035516644911 5.48259944407712 H 0.0 **** 0.06
10218 H 50.23963504531008 90.20883436082079 4.577406178213433 H 0.0 **** 0.06
10219 H 50.89033446004234 88.67879772116848 3.9409361434635386 H 0.0 **** 0.06
10220 H 51.90496343930539 90.14154029019153 3.9516667804000605 H 0.0 **** 0.06
10221 C 80.49609240203017 50.40259383089426 11.638953912371534 C 0.0 **** -0.24
10222 H 80.87376476819203 51.21608315125019 11.019289945606374 H 0.0 **** 0.06
10223 H 81.17999450334075 49.5551523076266 11.581286359635712 H 0.0 **** 0.06
10224 H 79.51247258568554 50.1005887160145 11.280524525404175 H 0.0 **** 0.06
10225 H 80.41996060955368 50.73902585507972 12.672604778753168 H 0.0 **** 0.06
10226 C 35.99858356462522 84.72383955806507 122.79865924059916 C 0.0 **** -0.24
10227 H 37.00669779282282 84.30801785034402 122.78481053662453 H 0.0 **** 0.06
10228 H 35.919780420387724 85.4551395307206 123.60373015525377 H 0.0 **** 0.06
10229 H 35.2788322628694 83.92270680466683 122.96322539648132 H 0.0 **** 0.06
10230 H 35.791992436956974 85.20835000584184 121.84484039476143 H 0.0 **** 0.06
10231 C 104.68015189638162 123.21515815867271 116.34487506299024 C 0.0 **** -0.24
10232 H 105.16088312931925 122.74139008194987 115.48950441188069 H 0.0 **** 0.06
10233 H 104.62736742235087 124.29185822743997 116.18212220526743 H 0.0 **** 0.06
10234 H 105.25943155812277 123.01233229232797 117.24669408542209 H 0.0 **** 0.06
10235 H 103.67260464064053 122.81599268124323 116.46401022568634 H 0.0 **** 0.06
10236 C 68.36856374029097 123.21819438549849 87.60893243247918 C 0.0 **** -0.24
10237 H 67.36133787018703 122.88809648206895 87.86345381803886 H 0.0 **** 0.06
10238 H 68.81502672697064 122.51171614867906 86.90802438156277 H 0.0 **** 0.06
10239 H 68.97499726401632 123.26393133653664 88.51369330590616 H 0.0 **** 0.06
10240 H 68.32351754027353 124.20534507864085 87.1506345252364 H 0.0 **** 0.06
10241 C 112.89259799171094 89.3054027261887 77.20286284586102 C 0.0 **** -0.24
10242 H 112.88786054113348 88.47793925113561 76.49393730836502 H 0.0 **** 0.06
10243 H 112.08502673572303 89.99609322422182 76.96132820940943 H 0.0 **** 0.06
10244 H 113.84725074229857 89.82817414752523 77.14397418123683 H 0.0 **** 0.06
10245 H 112.75238343534159 88.91979833423508 78.21276870614751 H 0.0 **** 0.06
10246 C 37.19930990260064 60.53085418005939 12.284452940644002 C 0.0 **** -0.24
10247 H 36.25125387752828 60.66743842192467 12.803714119036968 H 0.0 **** 0.06
10248 H 38.01895691009565 60.81598964247512 12.944363756762229 H 0.0 **** 0.06
10249 H 37.21679544269319 61.154796874176014 11.390431397637386 H 0.0 **** 0.06
10250 H 37.308645254647736 59.484812272286916 11.99814748060055 H 0.0 **** 0.06
10251 C 35.37167059594637 4.600965119754164 1.2318817055933948 C 0.0 **** -0.24
10252 H 34.30235934337634 4.615719960968704 1.4465105318069789 H 0.0 **** 0.06
10253 H 35.52485366966667 4.579875410077648 0.15169282517561555 H 0.0 **** 0.06
10254 H 35.81984274380599 3.7138729854813164 1.6799118393381889 H 0.0 **** 0.06
10255 H 35.83784795576253 5.493449366601624 1.648438071580955 H 0.0 **** 0.06
10256 C 3.281208756082634 87.98789894907787 25.096690311935788 C 0.0 **** -0.24
10257 H 4.042169107228688 87.80305099758674 24.337943760032545 H 0.0 **** 0.06
10258 H 2.402816757734854 87.37827057409444 24.884618499539613 H 0.0 **** 0.06
10259 H 3.005863649206674 89.04151143788268 25.084968850796656 H 0.0 **** 0.06
10260 H 3.677118575930649 87.7260434717424 26.077559719086764 H 0.0 **** 0.06
10261 C 106.66174039397626 87.94513436629043 43.616707937209355 C 0.0 **** -0.24
10262 H 106.67468567860044 88.10213803556431 44.6948855342016 H 0.0 **** 0.06
10263 H 106.06298084081706 87.06352077471894 43.38480869956766 H 0.0 **** 0.06
10264 H 107.68082120754252 87.796003814194 43.2598563136259 H 0.0 **** 0.06
10265 H 106.22942853826277 88.81712439742435 43.12712393989602 H 0.0 **** 0.06
10266 C 16.128684696366523 19.349097495637892 81.69938557802597 C 0.0 **** -0.24
10267 H 15.123161062559333 19.702918397236573 81.92555290955055 H 0.0 **** 0.06
10268 H 16.297043517944562 18.39240177365454 82.1940524565973 H 0.0 **** 0.06
10269 H 16.857549073041845 20.07745879829693 82.05681013722322 H 0.0 **** 0.06
10270 H 16.236867350136773 19.226850883949368 80.62182677723243 H 0.0 **** 0.06
10271 C 45.14530191297905 83.27202233133968 67.51796305270841 C 0.0 **** -0.24
10272 H 44.173709190942226 83.18866970764162 68.0060026867385 H 0.0 **** 0.06
10273 H 45.206928322904204 82.54696352401173 66.7053077039476 H 0.0 **** 0.06
10274 H 45.93435484910098 83.07370937442148 68.24314173886751 H 0.0 **** 0.06
10275 H 45.26460604868287 84.27788007739414 67.11611184773903 H 0.0 **** 0.06
10276 C 14.612268417266193 31.969779383395306 115.01429758067795 C 0.0 **** -0.24
10277 H 15.15180807759998 32.864104543902 115.32440097424583 H 0.0 **** 0.06
10278 H 15.103830726579133 31.530738375037245 114.14722486492764 H 0.0 **** 0.06
10279 H 13.5873082094991 32.236168106356615 114.75537220191187 H 0.0 **** 0.06
10280 H 14.603852333525566 31.248970308064727 115.83303517816802 H 0.0 **** 0.06
10281 C 42.74718249672972 59.62282825931999 81.61499125464599 C 0.0 **** -0.24
10282 H 43.672847246521485 60.006562427860985 82.04357794295714 H 0.0 **** 0.06
10283 H 42.86129905026954 59.521846194313355 80.535303898516 H 0.0 **** 0.06
10284 H 41.932106288184116 60.31241210651078 81.83129086562931 H 0.0 **** 0.06
10285 H 42.523320964861966 58.64789718332176 82.04904789532766 H 0.0 **** 0.06
10286 C 86.46786634934631 4.0475396922278435 83.36364376446429 C 0.0 **** -0.24
10287 H 86.05239037394011 4.112917330492024 84.36904675100917 H 0.0 **** 0.06
10288 H 86.43304736757156 5.0298589829387765 82.89203250259985 H 0.0 **** 0.06
10289 H 85.88478302292043 3.3400607961586957 82.77521103131139 H 0.0 **** 0.06
10290 H 87.50203338176158 3.708118342704836 83.42046272900754 H 0.0 **** 0.06
10291 C 105.63526327317706 83.33537766426656 120.08991613687544 C 0.0 **** -0.24
10292 H 105.22784148430642 82.68653134545687 119.31422568374592 H 0.0 **** 0.06
10293 H 105.58089052362527 82.82678289203125 121.0530821317995 H 0.0 **** 0.06
10294 H 105.05700977203708 84.25778241728591 120.13183279324613 H 0.0 **** 0.06
10295 H 106.67478885292019 83.56835288038764 119.85983178240474 H 0.0 **** 0.06
10296 C 70.53542783830804 40.82727396955499 107.55610210269074 C 0.0 **** -0.24
10297 H 71.40717927554424 40.534264345690204 106.97092819169963 H 0.0 **** 0.06
10298 H 69.84258718424445 39.98748783631964 107.62025702712033 H 0.0 **** 0.06
10299 H 70.04143061946037 41.67066468004367 107.07268136006857 H 0.0 **** 0.06
10300 H 70.85071620256252 41.11627779047458 108.55859286874289 H 0.0 **** 0.06
10301 C 71.98271956743514 91.93767263362878 12.889642223907714 C 0.0 **** -0.24
10302 H 71.36231025044519 91.2033991296445 12.376405071799638 H 0.0 **** 0.06
10303 H 71.64627648052866 92.94226810707724 12.629606083833352 H 0.0 **** 0.06
10304 H 73.02165955200147 91.81140223675294 12.585732400244098 H 0.0 **** 0.06
10305 H 71.89823608599012 91.79411182895184 13.966687035467572 H 0.0 **** 0.06
10306 C 71.20863892113283 99.35268931074087 48.044552257711416 C 0.0 **** -0.24
10307 H 70.42019751184318 99.32261590388173 47.29231661811161 H 0.0 **** 0.06
10308 H 72.09557252116343 98.84906547878751 47.66109757924261 H 0.0 **** 0.06
10309 H 70.86744963262402 98.85008725924776 48.94901215111042 H 0.0 **** 0.06
10310 H 71.45098072232514 100.39018829196534 48.274584906561756 H 0.0 **** 0.06
10311 C 99.64256191424857 105.77901599203886 90.5330688990377 C 0.0 **** -0.24
10312 H 99.10535000592091 106.65103023478446 90.9052613257655 H 0.0 **** 0.06
10313 H 98.92905243480334 104.9999756031807 90.26436458634859 H 0.0 **** 0.06
10314 H 100.31174624802549 105.40691611578382 91.30900622226376 H 0.0 **** 0.06
10315 H 100.2248494076282 106.05882980633231 89.654625240896 H 0.0 **** 0.06
10316 C 107.86482757262974 41.77679885298073 50.86224647647229 C 0.0 **** -0.24
10317 H 107.4923617783503 42.43080436926745 50.07374997805181 H 0.0 **** 0.06
10318 H 108.90392560671347 42.026138466987675 51.07986725041411 H 0.0 **** 0.06
10319 H 107.80085846937004 40.73915820000117 50.533991149427436 H 0.0 **** 0.06
10320 H 107.2627759413154 41.91201521280226 51.76049535592017 H 0.0 **** 0.06
10321 C 19.402680432814993 31.82018665753435 105.70664997904161 C 0.0 **** -0.24
10322 H 18.64830513321986 32.54318670141106 106.01777467780632 H 0.0 **** 0.06
10323 H 19.890063102447996 32.17285610300999 104.7972467972227 H 0.0 **** 0.06
10324 H 18.926920387895358 30.85860399872857 105.5150883581299 H 0.0 **** 0.06
10325 H 20.144808012668214 31.708226291754897 106.49678617745079 H 0.0 **** 0.06
10326 C 74.26518777479653 108.51400135785302 9.464638172309122 C 0.0 **** -0.24
10327 H 73.32927736169015 108.74857916136388 9.973468944030316 H 0.0 **** 0.06
10328 H 75.09535861366359 108.624303168002 10.162374942557761 H 0.0 **** 0.06
10329 H 74.40234981098536 109.19542927914424 8.624107771969165 H 0.0 **** 0.06
10330 H 74.23139041126245 107.48817175139123 9.098238058827746 H 0.0 **** 0.06
10331 C 78.67866879878727 2.026693439076496 11.331758986492417 C 0.0 **** -0.24
10332 H 78.203303433292 3.004175782804708 11.245128798719804 H 0.0 **** 0.06
10333 H 79.32733959628005 2.0158892228306797 12.208689011450502 H 0.0 **** 0.06
10334 H 79.27049510757467 1.8312960362651438 10.438166730348968 H 0.0 **** 0.06
10335 H 77.91253201615325 1.2581363800086791 11.43665519048119 H 0.0 **** 0.06
10336 C 46.163995819604075 62.5139199515223 71.45001238601361 C 0.0 **** -0.24
10337 H 45.80203638760792 61.66960156530749 70.86375603287888 H 0.0 **** 0.06
10338 H 47.047904208338075 62.936926475354 70.97197767735679 H 0.0 **** 0.06
10339 H 46.42022014961647 62.1752982759663 72.45366528195748 H 0.0 **** 0.06
10340 H 45.38484106691526 63.27361785120925 71.5120581597958 H 0.0 **** 0.06
10341 C 32.19021125048104 99.07318551911726 100.013530591403 C 0.0 **** -0.24
10342 H 32.67462592139523 98.21908482622712 100.48728070056873 H 0.0 **** 0.06
10343 H 32.93785979975584 99.83372836972853 99.78570172809685 H 0.0 **** 0.06
10344 H 31.443807649337884 99.48850754639841 100.68976569896134 H 0.0 **** 0.06
10345 H 31.7068388490716 98.75055068344108 99.09147875894561 H 0.0 **** 0.06
10346 C 74.41383969595233 28.915240740695296 57.94300811494014 C 0.0 **** -0.24
10347 H 74.32466766417434 28.357445537746308 57.01103089197602 H 0.0 **** 0.06
10348 H 75.06613900857946 29.774742262545118 57.79009826630113 H 0.0 **** 0.06
10349 H 74.8357847538827 28.270499162382237 58.71404662187308 H 0.0 **** 0.06
10350 H 73.42685187609737 29.258101488748622 58.25571617702178 H 0.0 **** 0.06
10351 C 75.83939219227707 121.0139634257995 47.880318097141924 C 0.0 **** -0.24
10352 H 74.92679267999927 120.4324438441595 47.74766501541541 H 0.0 **** 0.06
10353 H 75.59062749013445 121.98877910777806 48.299903870883895 H 0.0 **** 0.06
10354 H 76.3276713219824 121.14744548682614 46.91486341125173 H 0.0 **** 0.06
10355 H 76.51063184472622 120.48684636694925 48.5572653370715 H 0.0 **** 0.06
10356 C 30.874976974512606 98.16601712877932 61.94493601425728 C 0.0 **** -0.24
10357 H 30.307442686057584 98.71079678546249 61.18995210324209 H 0.0 **** 0.06
10358 H 31.57063127940731 98.84579660117802 62.438083785722654 H 0.0 **** 0.06
10359 H 31.43179482117793 97.35907098307675 61.467155118184564 H 0.0 **** 0.06
10360 H 30.189706875950478 97.74809169202518 62.682363926628625 H 0.0 **** 0.06
10361 C 8.593563366288663 85.05418609257384 63.07714916180649 C 0.0 **** -0.24
10362 H 9.478559837434332 84.45955203931742 63.303761824760315 H 0.0 **** 0.06
10363 H 8.454517316178908 85.80985817906542 63.85048777981292 H 0.0 **** 0.06
10364 H 7.718942115176787 84.40443582504996 63.0410384678991 H 0.0 **** 0.06
10365 H 8.72224025791742 85.54289438990942 62.11107245850489 H 0.0 **** 0.06
10366 C 67.86897820187716 50.75296972028059 40.083784791126924 C 0.0 **** -0.24
10367 H 68.87142009696845 50.68060317493479 40.50595543277984 H 0.0 **** 0.06
10368 H 67.93978163037616 50.97860285995847 39.018890258546044 H 0.0 **** 0.06
10369 H 67.32024924052058 51.54764936114174 40.58812340958584 H 0.0 **** 0.06
10370 H 67.34721765403305 49.806124588393516 40.22173013045019 H 0.0 **** 0.06
10371 C 36.50414612274437 56.31537376729398 35.556418665981994 C 0.0 **** -0.24
10372 H 36.120936733796555 56.23691636356973 34.5385204580331 H 0.0 **** 0.06
10373 H 36.18562514970773 55.44511627492241 36.13175081820033 H 0.0 **** 0.06
10374 H 36.11685494297603 57.22120321615448 36.021021901258976 H 0.0 **** 0.06
10375 H 37.593347137007356 56.35527440612522 35.53154253944579 H 0.0 **** 0.06
10376 C 57.18314217570526 67.37486861557836 60.136490135739024 C 0.0 **** -0.24
10377 H 56.5439367705651 66.49131936474555 60.14231606281892 H 0.0 **** 0.06
10378 H 57.91710380979339 67.28654996405957 59.33492548395938 H 0.0 **** 0.06
10379 H 57.697265294875365 67.45637420575132 61.094671755510674 H 0.0 **** 0.06
10380 H 56.57245301476442 68.26333961518101 59.97511866181506 H 0.0 **** 0.06
10381 C 102.2351898000548 80.45699843453659 51.47056580999819 C 0.0 **** -0.24
10382 H 102.21470272523118 80.56725750371469 50.3855321609671 H 0.0 **** 0.06
10383 H 103.23433963607386 80.15355956556601 51.785091213352246 H 0.0 **** 0.06
10384 H 101.51342481330346 79.6981555455452 51.77247054951647 H 0.0 **** 0.06
10385 H 101.98015966395275 81.40768225865585 51.936777672727175 H 0.0 **** 0.06
10386 C 14.620883553133268 16.051860422672217 27.98856159065386 C 0.0 **** -0.24
10387 H 15.18204168107475 15.385986099509648 28.644249515074307 H 0.0 **** 0.06
10388 H 13.964386514934318 15.461909865448359 27.347310625612607 H 0.0 **** 0.06
10389 H 15.314285096785909 16.62362839101981 27.371538564429756 H 0.0 **** 0.06
10390 H 14.022489872569807 16.7348842195891 28.592054954674182 H 0.0 **** 0.06
10391 C 55.867657809156896 54.11452548890472 67.47695023608884 C 0.0 **** -0.24
10392 H 54.78651887344088 54.24019303212705 67.41326342514452 H 0.0 **** 0.06
10393 H 56.331755796796614 55.07503213997242 67.70244918534439 H 0.0 **** 0.06
10394 H 56.24602654785943 53.74161744352736 66.5248313205883 H 0.0 **** 0.06
10395 H 56.10427989453487 53.40127362229384 68.2663642334984 H 0.0 **** 0.06
10396 C 111.93813606325487 49.074817716790335 70.00458680485747 C 0.0 **** -0.24
10397 H 110.85663882823319 49.206136705495055 69.97897956807947 H 0.0 **** 0.06
10398 H 112.42321866345257 50.050163063299465 69.95390060864753 H 0.0 **** 0.06
10399 H 112.25062536969658 48.46859477003585 69.1546051264454 H 0.0 **** 0.06
10400 H 112.2213565295614 48.57506321457316 70.93068468655287 H 0.0 **** 0.06
10401 C 69.7004076490658 3.729862461345199 105.98828608676484 C 0.0 **** -0.24
10402 H 68.92715136444872 2.976425611282437 106.13859690739508 H 0.0 **** 0.06
10403 H 69.23568622680892 4.675400059897061 105.70734765745709 H 0.0 **** 0.06
10404 H 70.37333397144033 3.405639402825674 105.19408314509572 H 0.0 **** 0.06
10405 H 70.26362217239313 3.860754487381943 106.91135233234203 H 0.0 **** 0.06
10406 C 88.01877004857317 10.120462942223071 100.35293940697855 C 0.0 **** -0.24
10407 H 87.93965194169527 9.15896936467368 99.84367205209449 H 0.0 **** 0.06
10408 H 89.04897220017426 10.277702955770394 100.67178230019297 H 0.0 **** 0.06
10409 H 87.36317484570145 10.124820704113631 101.22351888475319 H 0.0 **** 0.06
10410 H 87.7230389617456 10.91717193307835 99.6708385486086 H 0.0 **** 0.06
10411 C 51.12441424559205 97.73070218715439 113.87118524950351 C 0.0 **** -0.24
10412 H 51.68386743240836 96.93171246443518 113.38525086117215 H 0.0 **** 0.06
10413 H 50.181429288312984 97.33584179799384 114.25170522075527 H 0.0 **** 0.06
10414 H 50.921353613960946 98.52261824243021 113.15010338160738 H 0.0 **** 0.06
10415 H 51.70995925343078 98.13336258391224 114.69829431706931 H 0.0 **** 0.06
10416 C 85.1392248289213 2.789394405679957 41.560573288471744 C 0.0 **** -0.24
10417 H 84.87653258000674 2.326273051917042 40.60919001722999 H 0.0 **** 0.06
10418 H 84.83668859499582 3.8361387236393227 41.550045957425766 H 0.0 **** 0.06
10419 H 86.21668005154123 2.723695100939608 41.71119380997271 H 0.0 **** 0.06
10420 H 84.62591603964012 2.27009025683725 42.370476399162044 H 0.0 **** 0.06
10421 C 80.68384122399317 65.36547716371442 10.134268543828966 C 0.0 **** -0.24
10422 H 80.24122852555477 66.01377918665595 9.377834667727086 H 0.0 **** 0.06
10423 H 80.07812633097726 64.46518550825587 10.240824380536878 H 0.0 **** 0.06
10424 H 80.72152784206351 65.89337613599398 11.087291163816872 H 0.0 **** 0.06
10425 H 81.69371379377799 65.0902557504287 9.830156275104002 H 0.0 **** 0.06
10426 C 96.71338932659361 11.422530084872747 56.01369255304101 C 0.0 **** -0.24
10427 H 95.91424939166848 11.198267203336272 55.307307940765256 H 0.0 **** 0.06
10428 H 96.28812698523058 11.58936294729807 57.002645215893025 H 0.0 **** 0.06
10429 H 97.24322868330654 12.31796308470821 55.68889923173255 H 0.0 **** 0.06
10430 H 97.40847403382192 10.58373826726168 56.05365822297817 H 0.0 **** 0.06
10431 C 62.16785115940547 35.27294221114278 50.69914771968121 C 0.0 **** -0.24
10432 H 61.78423199194452 34.29241002629808 50.4183316914553 H 0.0 **** 0.06
10433 H 61.39221324967133 35.82984876957878 51.225677560202975 H 0.0 **** 0.06
10434 H 62.462452876059274 35.818031849548575 49.80284711332655 H 0.0 **** 0.06
10435 H 63.03379082539294 35.15176597314066 51.35086052729223 H 0.0 **** 0.06
10436 C 55.72017432595942 20.978679591562155 55.390326131207175 C 0.0 **** -0.24
10437 H 54.79843984496736 20.570711295340487 55.80589941805977 H 0.0 **** 0.06
10438 H 55.68814368703053 20.91208567927282 54.30263315091854 H 0.0 **** 0.06
10439 H 56.57005255751042 20.40886768466629 55.765664746644035 H 0.0 **** 0.06
10440 H 55.82213662691086 22.02250078636078 55.688102452989696 H 0.0 **** 0.06
10441 C 60.84862812453554 69.29094554667579 63.275970497195345 C 0.0 **** -0.24
10442 H 60.963097982910824 69.31224518162911 64.35929391745822 H 0.0 **** 0.06
10443 H 60.69694763664677 68.26276907738362 62.946800470717136 H 0.0 **** 0.06
10444 H 61.74683241880854 69.69309045177454 62.80770859420369 H 0.0 **** 0.06
10445 H 59.98833892081046 69.89549024493816 62.989394365740736 H 0.0 **** 0.06
10446 C 72.40799295867262 69.45622192429394 60.28390895832652 C 0.0 **** -0.24
10447 H 71.72525186617193 70.30282553307981 60.21445670487307 H 0.0 **** 0.06
10448 H 73.43070422802415 69.82095727225501 60.37721742377789 H 0.0 **** 0.06
10449 H 72.32002763057122 68.84350022016864 59.387442644113435 H 0.0 **** 0.06
10450 H 72.15451472159947 68.85761630459027 61.15965428541517 H 0.0 **** 0.06
10451 C 21.95867415030341 12.713308699782047 104.19380584459907 C 0.0 **** -0.24
10452 H 21.186742771070016 12.155779931555017 104.72367402807953 H 0.0 **** 0.06
10453 H 22.616540505523858 12.017389335422152 103.67331300237942 H 0.0 **** 0.06
10454 H 22.538003822207457 13.29816761286682 104.90738753203345 H 0.0 **** 0.06
10455 H 21.490823098652356 13.381258130274546 103.46989928201592 H 0.0 **** 0.06
10456 C 76.87136676818841 19.198363144565263 90.22760489020138 C 0.0 **** -0.24
10457 H 76.67510423827326 18.38685016772709 90.92716212615544 H 0.0 **** 0.06
10458 H 77.76462100216122 18.968942038160378 89.64587249302433 H 0.0 **** 0.06
10459 H 77.0258922013374 20.125591852538065 90.78088837019564 H 0.0 **** 0.06
10460 H 76.02012327720922 19.314045977945113 89.5563741309811 H 0.0 **** 0.06
10461 C 108.7297792307746 36.651496102512255 77.53262040272074 C 0.0 **** -0.24
10462 H 108.58122559925474 36.960692566184065 78.56712611085436 H 0.0 **** 0.06
10463 H 109.41561259624743 35.80319578993536 77.50261989385535 H 0.0 **** 0.06
10464 H 109.14981778554363 37.47926042149544 76.9626305197836 H 0.0 **** 0.06
10465 H 107.7725219104789 36.35935833830334 77.1003199498125 H 0.0 **** 0.06
10466 C 11.113812767854427 89.62738315223794 36.77783506144175 C 0.0 **** -0.24
10467 H 11.616538264124557 90.18226001315361 37.569899734012125 H 0.0 **** 0.06
10468 H 10.051183890905179 89.54795306829581 37.007901259997425 H 0.0 **** 0.06
10469 H 11.545204794192642 88.62929253365127 36.70207399264402 H 0.0 **** 0.06
10470 H 11.242176508386336 90.15177024484939 35.83007258031378 H 0.0 **** 0.06
10471 C 36.650791939911215 48.63948478708659 53.814928583953474 C 0.0 **** -0.24
10472 H 36.758815362532914 49.30629195131078 52.95973513854537 H 0.0 **** 0.06
10473 H 36.14657453704952 49.16621015969045 54.62476428811517 H 0.0 **** 0.06
10474 H 37.637444613110674 48.31704585919317 54.1495618436374 H 0.0 **** 0.06
10475 H 36.06319314621118 47.76916417837174 53.52517985361867 H 0.0 **** 0.06
10476 C 108.8190458047917 65.97389080926597 123.28411965935624 C 0.0 **** -0.24
10477 H 107.86894169392644 66.48648446647998 123.43516811820786 H 0.0 **** 0.06
10478 H 109.35797071393444 65.92192963510371 124.23062731108291 H 0.0 **** 0.06
10479 H 109.41554444393142 66.52339299666372 122.55564011604542 H 0.0 **** 0.06
10480 H 108.63207874508032 64.96523587836437 122.91473328607873 H 0.0 **** 0.06
10481 C 104.55869460456006 37.07865090735197 104.35986731710877 C 0.0 **** -0.24
10482 H 105.56295434662161 37.46511483192961 104.53146181433588 H 0.0 **** 0.06
10483 H 104.2013338721526 36.58146286850382 105.26230298343175 H 0.0 **** 0.06
10484 H 104.5808268001359 36.365384445185896 103.53583222315716 H 0.0 **** 0.06
10485 H 103.89051622821374 37.90229724285865 104.10947952025013 H 0.0 **** 0.06
10486 C 122.72337590514329 48.078730050162335 97.48561569324451 C 0.0 **** -0.24
10487 H 121.85823436157 47.54866738253733 97.88166782118888 H 0.0 **** 0.06
10488 H 123.29987299916237 47.40792798203566 96.8480284970957 H 0.0 **** 0.06
10489 H 123.34750665828025 48.422174750659394 98.31057644694262 H 0.0 **** 0.06
10490 H 122.3887963080397 48.93640658870879 96.90113540039785 H 0.0 **** 0.06
10491 C 116.73015576691826 9.458607532105532 49.689596663585235 C 0.0 **** -0.24
10492 H 116.7997844072593 8.766897837264878 48.85066448231652 H 0.0 **** 0.06
10493 H 116.96877637004015 10.467001281257922 49.34982464789368 H 0.0 **** 0.06
10494 H 117.43612930863854 9.160680030767764 50.46651713066274 H 0.0 **** 0.06
10495 H 115.71747355661132 9.439884058443795 50.09328456167282 H 0.0 **** 0.06
10496 C 23.507346959661767 97.1718598461103 116.82494399556046 C 0.0 **** -0.24
10497 H 23.775425591732997 98.06015872968254 116.25214673850574 H 0.0 **** 0.06
10498 H 23.779242407895815 96.2801652272841 116.25932015772018 H 0.0 **** 0.06
10499 H 22.433680069414628 97.1714699800875 117.0106182193493 H 0.0 **** 0.06
10500 H 24.041149545026514 97.17741411864984 117.77527007466132 H 0.0 **** 0.06
10501 C 93.09498190130928 64.62308548215351 81.83602217606389 C 0.0 **** -0.24
10502 H 93.68471866606457 65.07197264211656 81.0372039643919 H 0.0 **** 0.06
10503 H 92.61888200270293 63.71273787934058 81.46829677447673 H 0.0 **** 0.06
10504 H 92.33034312360157 65.32726474356046 82.16289336791463 H 0.0 **** 0.06
10505 H 93.74638606226277 64.37901123883913 82.67572815933738 H 0.0 **** 0.06
10506 C 109.92813691098388 92.25146809812095 94.21161269765423 C 0.0 **** -0.24
10507 H 110.88415706856505 92.14872043702941 94.72284353083597 H 0.0 **** 0.06
10508 H 110.09171977023259 92.26196517905431 93.13402086167144 H 0.0 **** 0.06
10509 H 109.45192264342388 93.18397394231353 94.51544416231974 H 0.0 **** 0.06
10510 H 109.28303445758193 91.41264931715158 94.47414386959429 H 0.0 **** 0.06
10511 C 9.830579577593056 13.48626208926845 56.98461514378906 C 0.0 **** -0.24
10512 H 9.975825289828567 13.377995207836477 55.91003818422281 H 0.0 **** 0.06
10513 H 8.851887581403002 13.924656742462787 57.17607724379748 H 0.0 **** 0.06
10514 H 10.605994178031715 14.134465107723372 57.39204331591844 H 0.0 **** 0.06
10515 H 9.889646620171995 12.505871259108517 57.45866332701115 H 0.0 **** 0.06
10516 C 2.813273884053416 91.02823269629233 13.677787683714598 C 0.0 **** -0.24
10517 H 2.302054228122472 91.96000782092496 13.43203499021945 H 0.0 **** 0.06
10518 H 3.5580285668308136 91.21595004812397 14.451180444012891 H 0.0 **** 0.06
10519 H 3.3037478693104276 90.63814291613922 12.786860720616062 H 0.0 **** 0.06
10520 H 2.0863044494059295 90.30088661542575 14.040991343097119 H 0.0 **** 0.06
10521 C 104.4867025535288 70.72905306797213 105.6513823212695 C 0.0 **** -0.24
10522 H 103.40107412243492 70.73615929668773 105.75278331786936 H 0.0 **** 0.06
10523 H 104.9425171654708 70.6276715142989 106.63715694968758 H 0.0 **** 0.06
10524 H 104.81406257024315 71.66281842924448 105.19430205329795 H 0.0 **** 0.06
10525 H 104.78774124785667 69.89149887515214 105.02334864199625 H 0.0 **** 0.06
10526 C 50.02027735271403 115.839436528095 104.00187768182377 C 0.0 **** -0.24
10527 H 49.35733568744999 116.44745396085403 104.6172928642892 H 0.0 **** 0.06
10528 H 50.97962942798635 115.72449212597886 104.5067034973917 H 0.0 **** 0.06
10529 H 50.171234158903374 116.32713301958208 103.03949220123707 H 0.0 **** 0.06
10530 H 49.571981806905484 114.85814698996921 103.84622854359156 H 0.0 **** 0.06
10531 C 57.59190955041916 13.963223847870438 0.33730080377958416 C 0.0 **** -0.24
10532 H 57.04779863961687 14.132080577148656 1.2661147700113133 H 0.0 **** 0.06
10533 H 57.23923535856075 14.661335025064716 -0.42246261513987804 H 0.0 **** 0.06
10534 H 57.422199606498566 12.941300199797126 -0.0020637641703018517 H 0.0 **** 0.06
10535 H 58.656734753362315 14.118397705526604 0.5072095979584219 H 0.0 **** 0.06
10536 C 76.86729771275762 82.40368701412037 21.435177443763223 C 0.0 **** -0.24
10537 H 76.46282467265755 83.03967903903471 22.222461636622 H 0.0 **** 0.06
10538 H 77.42296731391741 83.01516643132865 20.724467301226213 H 0.0 **** 0.06
10539 H 76.04935752604175 81.89977848735549 20.91971281429275 H 0.0 **** 0.06
10540 H 77.53243098792248 81.66048583722058 21.874593453643513 H 0.0 **** 0.06
10541 C 68.02205570376718 47.3430354659091 41.576609864242386 C 0.0 **** -0.24
10542 H 67.32733084751351 46.57038355512667 41.24935303486319 H 0.0 **** 0.06
10543 H 68.4260295790711 47.86077540468964 40.70614607020059 H 0.0 **** 0.06
10544 H 68.8372911347699 46.88561508416137 42.13740082850458 H 0.0 **** 0.06
10545 H 67.4985313390793 48.05635069865938 42.21387462369907 H 0.0 **** 0.06
10546 C 114.69800260114027 39.9387319910129 108.44123095336539 C 0.0 **** -0.24
10547 H 114.9215371695377 40.55623704301456 107.57182974398646 H 0.0 **** 0.06
10548 H 115.08716576068431 38.932631195658644 108.28257732937217 H 0.0 **** 0.06
10549 H 113.61892785050652 39.892653486179256 108.58686110556155 H 0.0 **** 0.06
10550 H 115.16592039546224 40.37292805925733 109.32520406434216 H 0.0 **** 0.06
10551 C 116.44224413944097 117.4667013664576 101.30110236856797 C 0.0 **** -0.24
10552 H 116.05640851005515 116.4843008974189 101.02886921120898 H 0.0 **** 0.06
10553 H 117.06907434141294 117.37725550227765 102.18859325117012 H 0.0 **** 0.06
10554 H 115.61028048474773 118.13903838535126 101.50867903807898 H 0.0 **** 0.06
10555 H 117.03386533100073 117.86485963734945 100.47660975096306 H 0.0 **** 0.06
10556 C 76.32044834361591 58.61937559673191 1.2652250909277427 C 0.0 **** -0.24
10557 H 76.52182594579972 59.58900636715708 1.7215933479821217 H 0.0 **** 0.06
10558 H 77.22681121048237 58.24854377817138 0.7866325494722162 H 0.0 **** 0.06
10559 H 75.53246244640457 58.725799940327136 0.5203380267025182 H 0.0 **** 0.06
10560 H 76.00157053986095 57.91545107288334 2.034219201294576 H 0.0 **** 0.06
10561 C 84.13035014125234 47.532421911012904 40.45843206364748 C 0.0 **** -0.24
10562 H 83.14543712591217 47.07969755741587 40.346647954305524 H 0.0 **** 0.06
10563 H 84.04914423404801 48.433169013063036 41.068409988071835 H 0.0 **** 0.06
10564 H 84.52456220783989 47.792527218657085 39.476375166153616 H 0.0 **** 0.06
10565 H 84.8028839516302 46.82487378520122 40.94342240657255 H 0.0 **** 0.06
10566 C 31.854868471395804 33.92989015297336 108.6833215039158 C 0.0 **** -0.24
10567 H 31.842674729778963 33.75868144688573 109.75900524730989 H 0.0 **** 0.06
10568 H 30.859331134292347 33.75431431382489 108.27563505127421 H 0.0 **** 0.06
10569 H 32.56506565933847 33.2478548186815 108.2146803600894 H 0.0 **** 0.06
10570 H 32.15364328571508 34.95938903000824 108.48151596928292 H 0.0 **** 0.06
10571 C 85.51770372086884 45.27907653216678 29.508987361266385 C 0.0 **** -0.24
10572 H 84.54259629170753 45.556770550797964 29.907866019990912 H 0.0 **** 0.06
10573 H 85.50698861141022 44.22738263939956 29.223215012401738 H 0.0 **** 0.06
10574 H 86.28151222643126 45.440953891523876 30.270140460518206 H 0.0 **** 0.06
10575 H 85.73971775392629 45.89119904694592 28.634727952154613 H 0.0 **** 0.06
10576 C 66.84409526197254 59.47533331743705 9.02399100618787 C 0.0 **** -0.24
10577 H 67.81636127226702 59.56640540691302 8.538989536725808 H 0.0 **** 0.06
10578 H 66.11650128558463 60.095301626555056 8.500339403599156 H 0.0 **** 0.06
10579 H 66.92425307676612 59.804556709179224 10.060185684867179 H 0.0 **** 0.06
10580 H 66.52132511410599 58.43428746919818 8.997520072083972 H 0.0 **** 0.06
10581 C 15.000697085924486 104.37789615175693 8.720069511476026 C 0.0 **** -0.24
10582 H 14.742964659244507 104.88009002127343 9.652306605054775 H 0.0 **** 0.06
10583 H 15.94234995703141 103.84224811480715 8.843713361209467 H 0.0 **** 0.06
10584 H 15.105151401060482 105.11783280245756 7.926586208359197 H 0.0 **** 0.06
10585 H 14.212684734778946 103.67233728705051 8.45779694132716 H 0.0 **** 0.06
10586 C 74.42832231696973 93.71719151923521 74.06085926467914 C 0.0 **** -0.24
10587 H 74.19619449198588 94.27330601076834 73.15194666449094 H 0.0 **** 0.06
10588 H 74.25341020900525 94.35270777285463 74.92930245988802 H 0.0 **** 0.06
10589 H 75.47360045454947 93.40862364122862 74.0401663994845 H 0.0 **** 0.06
10590 H 73.79042802658364 92.83621309536215 74.11966837623758 H 0.0 **** 0.06
10591 C 22.359843698648547 77.35834260592105 59.10963033093731 C 0.0 **** -0.24
10592 H 22.082052990403895 78.41306667196704 59.09598244339141 H 0.0 **** 0.06
10593 H 22.768291894201354 77.07731832010847 58.1392293333255 H 0.0 **** 0.06
10594 H 21.478131547284192 76.75365273971829 59.32356161446823 H 0.0 **** 0.06
10595 H 23.111385247473947 77.19130705461077 59.88216978543083 H 0.0 **** 0.06
10596 C 24.5073810833359 105.86266759801637 29.610229737882975 C 0.0 **** -0.24
10597 H 24.11625532835486 106.44014345234055 28.77270243791432 H 0.0 **** 0.06
10598 H 25.482755762798256 106.25621971261545 29.89914799824689 H 0.0 **** 0.06
10599 H 24.60995387137524 104.818094981199 29.313656544243088 H 0.0 **** 0.06
10600 H 23.821820716713404 105.93500839141515 30.4540119679136 H 0.0 **** 0.06
10601 C 79.16723868777666 63.103603222969326 33.08560580172826 C 0.0 **** -0.24
10602 H 78.71869681786742 63.022830900839324 34.07635238577933 H 0.0 **** 0.06
10603 H 79.90971565608243 62.313997150002365 32.95821246449407 H 0.0 **** 0.06
10604 H 79.64917436939055 64.07599178564975 32.984160306509295 H 0.0 **** 0.06
10605 H 78.39238538528855 62.99977078479135 32.32646295751704 H 0.0 **** 0.06
10606 C 114.81116778410646 9.548055189650729 81.87428871075082 C 0.0 **** -0.24
10607 H 113.99355094626847 9.075983904262678 81.32915190443771 H 0.0 **** 0.06
10608 H 115.67560542472691 8.883918777462416 81.87866041008857 H 0.0 **** 0.06
10609 H 114.49801234878329 9.744034750921113 82.9000349855337 H 0.0 **** 0.06
10610 H 115.07673326646983 10.487739159327706 81.38964272096871 H 0.0 **** 0.06
10611 C 72.01509571634165 85.70213766139281 37.116226931162515 C 0.0 **** -0.24
10612 H 70.9626264417617 85.75683497702985 36.83704712387134 H 0.0 **** 0.06
10613 H 72.09652586913887 85.53050489327134 38.18957311637621 H 0.0 **** 0.06
10614 H 72.50889073043595 86.63862465793923 36.85784684375304 H 0.0 **** 0.06
10615 H 72.49034514982122 84.88125889879834 36.57993065289426 H 0.0 **** 0.06
10616 C 87.74209926542402 33.97460959026573 92.04275349657792 C 0.0 **** -0.24
10617 H 88.26030880157361 33.799556023619715 92.98527607032128 H 0.0 **** 0.06
10618 H 86.76606413238112 34.41876633720314 92.24263597507425 H 0.0 **** 0.06
10619 H 87.60961140897892 33.027947785314225 91.51950205564734 H 0.0 **** 0.06
10620 H 88.33018034987904 34.652461899083306 91.42456456165377 H 0.0 **** 0.06
10621 C 22.503558022844906 16.817043602401654 67.18506667691668 C 0.0 **** -0.24
10622 H 21.850776590190073 17.602964974369215 67.56651230786775 H 0.0 **** 0.06
10623 H 23.277745188236047 16.600253284798185 67.9218793804568 H 0.0 **** 0.06
10624 H 22.966710626597056 17.14826419528727 66.25619465476052 H 0.0 **** 0.06
10625 H 21.91655496830311 15.917421317913835 66.99841754092483 H 0.0 **** 0.06
10626 C 33.934944809648755 100.92745324913295 118.92643873553413 C 0.0 **** -0.24
10627 H 34.694346606833165 101.33768468348782 119.59326470240381 H 0.0 **** 0.06
10628 H 33.27560831611106 101.72847094063914 118.59091109468989 H 0.0 **** 0.06
10629 H 33.35186128811324 100.17584044407752 119.45844954063391 H 0.0 **** 0.06
10630 H 34.41868219359242 100.46892633909013 118.06363171514673 H 0.0 **** 0.06
10631 C 97.100764255121 33.15829195348033 3.829408072431278 C 0.0 **** -0.24
10632 H 96.62436671095753 34.05658595971727 3.437511489887129 H 0.0 **** 0.06
10633 H 96.48673763579268 32.74002868190672 4.627242563710325 H 0.0 **** 0.06
10634 H 98.08538866876908 33.41093551051421 4.22305221778646 H 0.0 **** 0.06
10635 H 97.20584463006605 32.42441590612617 3.029630083801081 H 0.0 **** 0.06
10636 C 101.45624040793521 98.65095569859783 122.43984715573487 C 0.0 **** -0.24
10637 H 102.19253753382398 97.90534037482735 122.13891681998484 H 0.0 **** 0.06
10638 H 101.95237836792839 99.60951217554928 122.5897347042916 H 0.0 **** 0.06
10639 H 100.98212043499635 98.33731592436864 123.36991169892067 H 0.0 **** 0.06
10640 H 100.70065756099672 98.74989159904959 121.6614797149868 H 0.0 **** 0.06
10641 C 109.33646416716033 14.789437336918155 50.565216679318766 C 0.0 **** -0.24
10642 H 110.179670387491 14.167584034583541 50.865560543636676 H 0.0 **** 0.06
10643 H 109.70521747901006 15.686243861124836 50.06724000657115 H 0.0 **** 0.06
10644 H 108.76247401507325 15.07216371621277 51.44718649862625 H 0.0 **** 0.06
10645 H 108.69857196441814 14.230405315704076 49.88047333001137 H 0.0 **** 0.06
10646 C 4.62121814774855 124.06108117297282 37.41717061899783 C 0.0 **** -0.24
10647 H 4.281346957588255 123.03581063361496 37.562860674877925 H 0.0 **** 0.06
10648 H 5.03461850715081 124.16724649631053 36.414822521733754 H 0.0 **** 0.06
10649 H 5.388386427913417 124.29702991115715 38.15448582739339 H 0.0 **** 0.06
10650 H 3.7798068715655404 124.74273138155623 37.53800404662945 H 0.0 **** 0.06
10651 C 101.58690007843913 74.64133669578287 9.396121708024737 C 0.0 **** -0.24
10652 H 101.61947230817239 74.85542411129491 10.464199567094113 H 0.0 **** 0.06
10653 H 101.0903170470722 75.4609183764143 8.876675011555164 H 0.0 **** 0.06
10654 H 101.03636427873622 73.71606690893101 9.228354541924375 H 0.0 **** 0.06
10655 H 102.60384646610007 74.53337617371666 9.017003842672352 H 0.0 **** 0.06
10656 C 75.44368997395019 11.337528197394192 59.13898003179756 C 0.0 **** -0.24
10657 H 76.02921468145664 10.555290665987172 58.65498414768186 H 0.0 **** 0.06
10658 H 74.7649912427308 11.784733711174908 58.41252013474258 H 0.0 **** 0.06
10659 H 76.11382435877573 12.103938883472154 59.52954798005109 H 0.0 **** 0.06
10660 H 74.86789550005085 10.907168725581016 59.957602100236585 H 0.0 **** 0.06
10661 C 112.90400084293697 5.681018718925998 39.00331616930154 C 0.0 **** -0.24
10662 H 112.6785767295207 5.454550717439702 37.96170210221223 H 0.0 **** 0.06
10663 H 112.17652710097249 6.398382117326435 39.384710296313386 H 0.0 **** 0.06
10664 H 113.90532971358911 6.106683049997997 39.07348819444806 H 0.0 **** 0.06
10665 H 112.85608879501129 4.765313589526471 39.593344392258814 H 0.0 **** 0.06
10666 C 66.07378838763242 1.9906514956274464 105.28102544749407 C 0.0 **** -0.24
10667 H 65.77145580679982 2.7701124304842324 104.5820652648797 H 0.0 **** 0.06
10668 H 66.75161306038373 1.2974595256943644 104.78080907013396 H 0.0 **** 0.06
10669 H 65.1924148420537 1.4508697547521479 105.62750929925329 H 0.0 **** 0.06
10670 H 66.5816266512704 2.4436778818736684 106.13275141485241 H 0.0 **** 0.06
10671 C 6.671628520794627 99.65353710645945 7.113207512198624 C 0.0 **** -0.24
10672 H 5.951455353846853 100.40617395360232 6.790616206358813 H 0.0 **** 0.06
10673 H 6.25948754419349 98.65936097939766 6.943186043030856 H 0.0 **** 0.06
10674 H 6.882351959672405 99.78367409330355 8.174487720283803 H 0.0 **** 0.06
10675 H 7.5943878351278045 99.7676803247603 6.54419056091346 H 0.0 **** 0.06
10676 C 121.09715483605655 58.81300321893937 60.63530774256043 C 0.0 **** -0.24
10677 H 121.68797789208315 58.64281071466402 59.735261445973094 H 0.0 **** 0.06
10678 H 121.00832910702874 59.885258591021795 60.81301866785424 H 0.0 **** 0.06
10679 H 121.58842854597813 58.34363082829438 61.4864236561192 H 0.0 **** 0.06
10680 H 120.10469025315479 58.382985560598655 60.50542894983374 H 0.0 **** 0.06
10681 C 55.287056790699694 20.572604367740098 91.55187196271584 C 0.0 **** -0.24
10682 H 54.74054736254965 21.26097904856718 90.90628268463642 H 0.0 **** 0.06
10683 H 56.14900690122721 21.084190779262087 91.98093500420028 H 0.0 **** 0.06
10684 H 55.62618605297166 19.717124124741247 90.967086836948 H 0.0 **** 0.06
10685 H 54.63228291250704 20.229101144551123 92.35313124992099 H 0.0 **** 0.06
10686 C 80.00117483643957 124.27381290820936 6.365993558100456 C 0.0 **** -0.24
10687 H 79.22805084057484 124.91505647666014 6.790384568017089 H 0.0 **** 0.06
10688 H 80.57974601691802 124.83714790469796 5.635219535777935 H 0.0 **** 0.06
10689 H 79.53506727104876 123.41700137255782 5.878836017646904 H 0.0 **** 0.06
10690 H 80.65937614011591 123.92469905971777 7.162011966601142 H 0.0 **** 0.06
10691 C 37.41327805499537 107.4427954543921 114.24337197621944 C 0.0 **** -0.24
10692 H 36.98178311358818 106.50337321672941 113.89571300450032 H 0.0 **** 0.06
10693 H 38.42590250282419 107.54325533637498 113.85321274387846 H 0.0 **** 0.06
10694 H 37.44022733397036 107.44861505821979 115.33267704600487 H 0.0 **** 0.06
10695 H 36.80324307262053 108.27481149947647 113.89093424405496 H 0.0 **** 0.06
10696 C 80.15273923200118 47.265882257592864 121.23923828889457 C 0.0 **** -0.24
10697 H 79.40094733267125 47.02117897895542 120.48817903068635 H 0.0 **** 0.06
10698 H 79.86498653735276 46.82921864281258 122.19531775864607 H 0.0 **** 0.06
10699 H 80.22444411709307 48.34893146625467 121.34161287444834 H 0.0 **** 0.06
10700 H 81.11768599461925 46.86507753772365 120.93091546998477 H 0.0 **** 0.06
10701 C 61.722314737746416 94.06758474522465 22.868634615603867 C 0.0 **** -0.24
10702 H 62.47208571273495 94.7345882479483 23.292288289386647 H 0.0 **** 0.06
10703 H 60.96595148186205 93.84516630773105 23.622129430194377 H 0.0 **** 0.06
10704 H 62.199568489500905 93.1413015309663 22.548606530641393 H 0.0 **** 0.06
10705 H 61.25115952457011 94.54853527442427 22.011069986192183 H 0.0 **** 0.06
10706 C 109.32436289469445 51.249407357088074 38.46208290609718 C 0.0 **** -0.24
10707 H 109.24904581713764 52.336671867853994 38.49733882552596 H 0.0 **** 0.06
10708 H 108.79732331306252 50.876801645977764 37.58366673089989 H 0.0 **** 0.06
10709 H 108.87700367441312 50.82620721065277 39.36206075549205 H 0.0 **** 0.06
10710 H 110.37371829296399 50.96030863862657 38.40733926943204 H 0.0 **** 0.06
10711 C 5.2612413080169915 66.36034338784714 67.4409047530723 C 0.0 **** -0.24
10712 H 5.992818972600901 66.03176877626386 68.17906567691499 H 0.0 **** 0.06
10713 H 5.015998569529643 65.52902324274524 66.7785305211332 H 0.0 **** 0.06
10714 H 5.679602227662173 67.17895934946542 66.85640181414718 H 0.0 **** 0.06
10715 H 4.360001075087723 66.69940708243541 67.94922987152066 H 0.0 **** 0.06
10716 C 47.144961100356795 75.98008240527844 12.979376030674203 C 0.0 **** -0.24
10717 H 48.13687585127249 75.86704371784361 12.540183399327702 H 0.0 **** 0.06
10718 H 46.39323808372886 75.94641700291217 12.1912333939637 H 0.0 **** 0.06
10719 H 47.085993483604994 76.93631850282105 13.499327046600456 H 0.0 **** 0.06
10720 H 46.96732829128362 75.16952406082049 13.686983637238626 H 0.0 **** 0.06
10721 C 58.29208934012084 92.60515294269892 92.35438975826723 C 0.0 **** -0.24
10722 H 58.63480797233845 93.44054639513784 92.96513228897086 H 0.0 **** 0.06
10723 H 57.929525694332 92.9794473087432 91.3970747464188 H 0.0 **** 0.06
10724 H 57.485843343884625 92.0846017830952 92.87086490006985 H 0.0 **** 0.06
10725 H 59.11998826128624 91.91541486501501 92.18565757617067 H 0.0 **** 0.06
10726 C 118.8228520173144 15.750800748098897 20.05680446574182 C 0.0 **** -0.24
10727 H 119.66635807054979 15.561421881754626 20.71995591029799 H 0.0 **** 0.06
10728 H 117.95916660552712 15.177907851589964 20.393819192575407 H 0.0 **** 0.06
10729 H 119.08488405284947 15.451102801211931 19.041597041162 H 0.0 **** 0.06
10730 H 118.58187741110912 16.814055686112454 20.069954290440748 H 0.0 **** 0.06
10731 C 10.916280791312317 109.34625280449859 96.39635652527332 C 0.0 **** -0.24
10732 H 11.925219766216344 109.16033686943375 96.02930466061773 H 0.0 **** 0.06
10733 H 10.53522117032361 108.4489021173121 96.8839147469113 H 0.0 **** 0.06
10734 H 10.268890273535192 109.60945826190249 95.5601710884923 H 0.0 **** 0.06
10735 H 10.9365914162139 110.16860429840123 97.11237557066923 H 0.0 **** 0.06
10736 C 59.66789847820044 8.173940224958187 24.82201126049017 C 0.0 **** -0.24
10737 H 58.72206801257012 8.454813733915557 24.35991662613867 H 0.0 **** 0.06
10738 H 59.544023198251026 8.126198460884666 25.90385429024093 H 0.0 **** 0.06
10739 H 60.4266905763444 8.917019111430136 24.575844548175496 H 0.0 **** 0.06
10740 H 59.97983443800081 7.198691979960699 24.44859927470685 H 0.0 **** 0.06
10741 C 26.728854047560958 95.63456097768162 30.450130492304837 C 0.0 **** -0.24
10742 H 26.313566346757483 96.11495912965265 31.336389754791973 H 0.0 **** 0.06
10743 H 26.303785260203682 94.63603198270673 30.346053094891396 H 0.0 **** 0.06
10744 H 27.811854531568315 95.56083408408233 30.54972974705869 H 0.0 **** 0.06
10745 H 26.484352598988124 96.22763141067632 29.568067406254585 H 0.0 **** 0.06
10746 C 17.88142873059697 55.52173529546138 79.06339845873626 C 0.0 **** -0.24
10747 H 18.697551285891993 55.34305561440243 78.36356188161231 H 0.0 **** 0.06
10748 H 17.5564970945534 56.55965104579633 78.98548133578588 H 0.0 **** 0.06
10749 H 18.225289112156556 55.324333833354785 80.07934997111515 H 0.0 **** 0.06
10750 H 17.04851741098967 54.86044134078071 78.82696943254773 H 0.0 **** 0.06
10751 C 79.8883779364862 28.145336702185347 94.0022256585675 C 0.0 **** -0.24
10752 H 80.3863748488346 27.186817065821174 93.85711234475156 H 0.0 **** 0.06
10753 H 79.61885610640851 28.565555365219595 93.0333371415795 H 0.0 **** 0.06
10754 H 80.56095569203941 28.828152084974164 94.52156373144688 H 0.0 **** 0.06
10755 H 78.98744174275967 27.999837651799652 94.59889369803845 H 0.0 **** 0.06
10756 C 64.63659191123945 103.5417369803692 120.48072545349183 C 0.0 **** -0.24
10757 H 65.07239842437151 102.65276127457855 120.93657584501392 H 0.0 **** 0.06
10758 H 64.81063184183814 104.40303436290077 121.12553675756786 H 0.0 **** 0.06
10759 H 63.56509885081691 103.39493388247121 120.35118746976451 H 0.0 **** 0.06
10760 H 65.09988123421107 103.71616195848839 119.50905539820118 H 0.0 **** 0.06
10761 C 61.04409675628092 121.76993910855168 106.19111483242466 C 0.0 **** -0.24
10762 H 61.496513402594005 121.21857184159057 107.01552676523374 H 0.0 **** 0.06
10763 H 61.704127391187 122.58499400994172 105.89409163500346 H 0.0 **** 0.06
10764 H 60.08428637516309 122.17655541276409 106.5088126266557 H 0.0 **** 0.06
10765 H 60.89119478336127 121.09879810463678 105.34554964661112 H 0.0 **** 0.06
10766 C 102.35933225449152 73.82296640957055 18.257565947119815 C 0.0 **** -0.24
10767 H 102.83392907457169 74.79808764667224 18.36865670615208 H 0.0 **** 0.06
10768 H 101.80949487761708 73.79245963336464 17.315963590883484 H 0.0 **** 0.06
10769 H 101.67059603479919 73.65847211587648 19.08636312725247 H 0.0 **** 0.06
10770 H 103.12270375134297 73.04593710907982 18.25899625896966 H 0.0 **** 0.06
10771 C 22.199702308768963 7.964470338918261 9.810479004065684 C 0.0 **** -0.24
10772 H 21.129917327335136 8.16212195214976 9.742643610399313 H 0.0 **** 0.06
10773 H 22.419195943970294 6.993621987204278 9.365438819664462 H 0.0 **** 0.06
10774 H 22.501756687753527 7.960410781889294 10.858450594338194 H 0.0 **** 0.06
10775 H 22.747217302691524 8.74137899571329 9.277470614901262 H 0.0 **** 0.06
10776 C 119.13566348083408 42.04362612311769 34.95449958456339 C 0.0 **** -0.24
10777 H 118.42942556773053 42.76754252979265 35.36251651776283 H 0.0 **** 0.06
10778 H 119.27597837417221 41.231090977929284 35.66837923263276 H 0.0 **** 0.06
10779 H 120.09212907770555 42.5342465686212 34.76960249331458 H 0.0 **** 0.06
10780 H 118.74607038462298 41.643702346497264 34.01944461865568 H 0.0 **** 0.06
10781 C 23.109054023639608 110.56465995818054 32.98110806904046 C 0.0 **** -0.24
10782 H 22.39623185104795 111.37962676490504 32.85125269807352 H 0.0 **** 0.06
10783 H 23.640426563057076 110.3939256466897 32.04443001997433 H 0.0 **** 0.06
10784 H 22.57595468655726 109.65780086227531 33.26804434754135 H 0.0 **** 0.06
10785 H 23.823452076912318 110.8286439013616 33.76107256955797 H 0.0 **** 0.06
10786 C 24.88989729986656 22.985773261338693 101.64722667407233 C 0.0 **** -0.24
10787 H 24.615218108829367 22.336631161335305 102.47801336519461 H 0.0 **** 0.06
10788 H 25.882575122991582 22.71497286827696 101.28789593408985 H 0.0 **** 0.06
10789 H 24.89470629600484 24.023382503988387 101.98265877968254 H 0.0 **** 0.06
10790 H 24.16636621425326 22.868785477748972 100.84021344459967 H 0.0 **** 0.06
10791 C 81.75484106167343 74.25765474714744 64.94625704515965 C 0.0 **** -0.24
10792 H 81.45634389390185 73.34118480107118 64.43845893556355 H 0.0 **** 0.06
10793 H 81.87506596205273 74.05975061956741 66.01164226510883 H 0.0 **** 0.06
10794 H 80.98908907255554 75.01896520370624 64.80208730252369 H 0.0 **** 0.06
10795 H 82.70046964426805 74.60989815244868 64.53370778165245 H 0.0 **** 0.06
10796 C 26.188937257853198 119.78535807835365 35.235922220353274 C 0.0 **** -0.24
10797 H 26.71440684560686 120.34385364956968 36.01057189418148 H 0.0 **** 0.06
10798 H 26.783371008862076 119.78662466369184 34.32176650690698 H 0.0 **** 0.06
10799 H 25.222962926250972 120.2513249997379 35.043968916196434 H 0.0 **** 0.06
10800 H 26.036969524097046 118.75849973002497 35.56980617644376 H 0.0 **** 0.06
10801 C 97.2403065374582 28.19528566217278 27.852813946208165 C 0.0 **** -0.24
10802 H 96.15523001734667 28.147994954132287 27.761604115874825 H 0.0 **** 0.06
10803 H 97.69786387555027 27.883608085910424 26.91362754133658 H 0.0 **** 0.06
10804 H 97.56755889919609 27.532281622465064 28.654343294750838 H 0.0 **** 0.06
10805 H 97.54178870172703 29.217959127102347 28.081858167728377 H 0.0 **** 0.06
10806 C 31.083633468442557 6.38597333169065 17.061173371554077 C 0.0 **** -0.24
10807 H 32.09664713249495 6.123399173872002 16.755821361357665 H 0.0 **** 0.06
10808 H 30.54234268231579 5.482392574688561 17.340638535975646 H 0.0 **** 0.06
10809 H 30.5708797817112 6.875602721000433 16.232879064980292 H 0.0 **** 0.06
10810 H 31.124578025712964 7.063187662279404 17.914122365031293 H 0.0 **** 0.06
10811 C 87.79463414576165 110.52700358055819 90.12536101867467 C 0.0 **** -0.24
10812 H 88.82342823218464 110.75505389698083 90.40428304071956 H 0.0 **** 0.06
10813 H 87.78493006487841 109.70373105018507 89.41159086119254 H 0.0 **** 0.06
10814 H 87.337637797462 111.4074915398387 89.67261931452853 H 0.0 **** 0.06
10815 H 87.23102001599679 110.24364416742048 91.01469858349083 H 0.0 **** 0.06
10816 C 97.07756379750214 121.17735748586342 52.23767206517971 C 0.0 **** -0.24
10817 H 98.14247423887603 120.94717291692233 52.27480074643776 H 0.0 **** 0.06
10818 H 96.9425476975349 122.25440720125567 52.12789324607144 H 0.0 **** 0.06
10819 H 96.60217919198271 120.84362501180432 53.15972943348565 H 0.0 **** 0.06
10820 H 96.62461383713693 120.66611326961049 51.388230842453595 H 0.0 **** 0.06
10821 C 123.98610288100232 123.72442186800319 26.152691401453673 C 0.0 **** -0.24
10822 H 124.03150404648804 124.35624023068718 25.265292375304448 H 0.0 **** 0.06
10823 H 124.95619791224058 123.25351178109148 26.312663415048284 H 0.0 **** 0.06
10824 H 123.22651725068265 122.95490701351679 26.01194584904158 H 0.0 **** 0.06
10825 H 123.73011427695475 124.33372700284207 27.018517426156457 H 0.0 **** 0.06
10826 C 18.98578534040439 72.17350869510044 116.12750604406884 C 0.0 **** -0.24
10827 H 18.01933053267689 72.64465103168077 116.30197272194039 H 0.0 **** 0.06
10828 H 19.71424529584408 72.56174038549315 116.83945264504607 H 0.0 **** 0.06
10829 H 19.317627586433787 72.3911500706312 115.11212745321897 H 0.0 **** 0.06
10830 H 18.892073861695394 71.09503853027978 116.25554111170656 H 0.0 **** 0.06
10831 C 37.11358289384333 73.17852767685433 61.62973528028721 C 0.0 **** -0.24
10832 H 37.186769248787186 72.12054744897588 61.88031115271633 H 0.0 **** 0.06
10833 H 36.06634388431189 73.48042488064031 61.62609803139415 H 0.0 **** 0.06
10834 H 37.5448951959728 73.34921334657534 60.64374909074209 H 0.0 **** 0.06
10835 H 37.658652708741386 73.76488664564538 62.37041053946825 H 0.0 **** 0.06
10836 C 81.53818142176408 81.20458086578596 85.45493531760067 C 0.0 **** -0.24
10837 H 80.60254027825536 81.7286683190874 85.64927184495015 H 0.0 **** 0.06
10838 H 82.3638398307339 81.7545308411134 85.9073919064126 H 0.0 **** 0.06
10839 H 81.69632813073466 81.13212167763182 84.3788089297535 H 0.0 **** 0.06
10840 H 81.48911017155186 80.20363056308108 85.88338391303888 H 0.0 **** 0.06
10841 C 18.505832287384862 62.539398002778285 118.1408299375245 C 0.0 **** -0.24
10842 H 17.534185345547172 62.11442105261784 118.39244574497346 H 0.0 **** 0.06
10843 H 19.20778875874504 61.73576486984547 117.91964771800495 H 0.0 **** 0.06
10844 H 18.875869327597997 63.12449509943042 118.98319311517922 H 0.0 **** 0.06
10845 H 18.403747668635674 63.183909359807046 117.26704185467824 H 0.0 **** 0.06
10846 C 13.636355508519273 49.18796610518971 74.48880354003163 C 0.0 **** -0.24
10847 H 13.90362621843758 48.57090255820291 75.34666638170691 H 0.0 **** 0.06
10848 H 12.786209810883975 49.82088635199079 74.74714065845097 H 0.0 **** 0.06
10849 H 13.3703587816033 48.54675576170565 73.64849363313448 H 0.0 **** 0.06
10850 H 14.485774109983055 49.814286257435285 74.21378920551868 H 0.0 **** 0.06
10851 C 38.500692647476086 113.1654409861921 30.03399860805652 C 0.0 **** -0.24
10852 H 39.41449557399525 112.75871757665298 29.600407780322826 H 0.0 **** 0.06
10853 H 37.780548450197195 113.3669926793749 29.240500657013172 H 0.0 **** 0.06
10854 H 38.73083617840864 114.09149701919476 30.56130299114625 H 0.0 **** 0.06
10855 H 38.07847053942705 112.44391549810734 30.734086614222264 H 0.0 **** 0.06
10856 C 9.258988724626619 120.78784523482025 9.45517237125065 C 0.0 **** -0.24
10857 H 9.380563391263223 120.40656330781121 8.441591902111512 H 0.0 **** 0.06
10858 H 9.255145232074653 119.95593139520315 10.158873482913723 H 0.0 **** 0.06
10859 H 8.316154227277607 121.33040207950502 9.528329173269235 H 0.0 **** 0.06
10860 H 10.083751047928644 121.46088339337523 9.69153756912818 H 0.0 **** 0.06
10861 C 80.86883610391737 107.71072409348403 97.17852268991518 C 0.0 **** -0.24
10862 H 81.1534976532175 108.75134216749615 97.02845788996106 H 0.0 **** 0.06
10863 H 79.89842905261746 107.52982659444837 96.71558533987351 H 0.0 **** 0.06
10864 H 80.80641977491767 107.50105771976138 98.24690182876756 H 0.0 **** 0.06
10865 H 81.61558003058911 107.05968566649295 96.72300076008074 H 0.0 **** 0.06
10866 C 99.56622673579048 7.840843230901612 70.64356486733466 C 0.0 **** -0.24
10867 H 99.96735864515256 6.865027975444576 70.91839302288119 H 0.0 **** 0.06
10868 H 99.75254736910554 8.024321095103744 69.58543151189254 H 0.0 **** 0.06
10869 H 100.05433287694515 8.613536407039987 71.23774949459256 H 0.0 **** 0.06
10870 H 98.49345367608299 7.858378345443782 70.83357577143451 H 0.0 **** 0.06
10871 C 11.1022252080829 78.03861111549337 25.01102638607904 C 0.0 **** -0.24
10872 H 10.375520794688523 77.47472730927468 25.59729214937653 H 0.0 **** 0.06
10873 H 11.527431820989733 78.83170431362628 25.627297675468924 H 0.0 **** 0.06
10874 H 10.60695646488595 78.47718069001432 24.14394024222696 H 0.0 **** 0.06
10875 H 11.895627185772387 77.37083949060826 24.677958868393432 H 0.0 **** 0.06
10876 C 19.849181127659364 112.62284766162153 83.53040346967259 C 0.0 **** -0.24
10877 H 20.38267505283548 111.68088922313898 83.65560415196258 H 0.0 **** 0.06
10878 H 19.02885292197115 112.48470831885591 82.82524254707907 H 0.0 **** 0.06
10879 H 20.53429964810303 113.37982659850266 83.14891139838299 H 0.0 **** 0.06
10880 H 19.451660624465944 112.94549468721311 84.49229640226075 H 0.0 **** 0.06
10881 C 25.521862361778673 13.72592747950631 52.31364776035616 C 0.0 **** -0.24
10882 H 24.808096529831168 13.60663883236846 53.12909260324305 H 0.0 **** 0.06
10883 H 25.377793995990253 12.927093931553571 51.585582500770464 H 0.0 **** 0.06
10884 H 26.536671248478157 13.678113192605565 52.70962057284069 H 0.0 **** 0.06
10885 H 25.36524645154706 14.690788517046258 51.831604890409835 H 0.0 **** 0.06
10886 C 80.32081677638122 3.8362180616174726 40.551646901836904 C 0.0 **** -0.24
10887 H 80.71625035770518 4.2100924683628165 41.496565399406336 H 0.0 **** 0.06
10888 H 79.75562679824927 4.626019455974657 40.05689772517451 H 0.0 **** 0.06
10889 H 79.66582082333703 2.9864456400044475 40.744817444471494 H 0.0 **** 0.06
10890 H 81.14527198228966 3.522597478141634 39.911442683066014 H 0.0 **** 0.06
10891 C 64.19171707522614 4.768720555962233 46.77967749640558 C 0.0 **** -0.24
10892 H 65.15985190024365 4.887715924164013 47.26615439218005 H 0.0 **** 0.06
10893 H 64.21054314711363 5.262239601046588 45.808069432735515 H 0.0 **** 0.06
10894 H 63.41473732524173 5.215589551988586 47.40005744777203 H 0.0 **** 0.06
10895 H 63.98216778169383 3.7069822019212495 46.64391096809472 H 0.0 **** 0.06
10896 C 41.01176136789881 51.0137807005639 77.62752192703311 C 0.0 **** -0.24
10897 H 41.623773266345566 50.6204069800479 78.43839256410904 H 0.0 **** 0.06
10898 H 40.57608127448864 50.18608686565872 77.06761167123314 H 0.0 **** 0.06
10899 H 41.631364434989635 51.616584400304134 76.96414540839655 H 0.0 **** 0.06
10900 H 40.21463700874039 51.63199362744169 78.04070136912136 H 0.0 **** 0.06
10901 C 43.08253394802438 34.58367081608873 62.03904389775488 C 0.0 **** -0.24
10902 H 43.566354439724705 35.27727964963111 62.72603310636464 H 0.0 **** 0.06
10903 H 42.304054893409756 35.10596626104089 61.483127065774795 H 0.0 **** 0.06
10904 H 42.638580967451645 33.76336765422133 62.603633319906635 H 0.0 **** 0.06
10905 H 43.82294998138778 34.186426752031565 61.34317029299473 H 0.0 **** 0.06
10906 C 64.94305931903398 105.72669901724447 99.35019425813113 C 0.0 **** -0.24
10907 H 64.6932898273967 104.6871647339857 99.565940545116 H 0.0 **** 0.06
10908 H 64.32060279546606 106.3834892605066 99.9592387955928 H 0.0 **** 0.06
10909 H 64.76393351222922 105.93155711414877 98.29414649585837 H 0.0 **** 0.06
10910 H 65.99288640285354 105.9027982840454 99.58214638155997 H 0.0 **** 0.06
10911 C 120.95355999306994 37.85043269349026 33.347394577081324 C 0.0 **** -0.24
10912 H 122.00267152056644 38.07053567071361 33.54816673248179 H 0.0 **** 0.06
10913 H 120.37026395190111 38.76949898981363 33.41691196135693 H 0.0 **** 0.06
10914 H 120.58678469748963 37.13142055536443 34.08021867464527 H 0.0 **** 0.06
10915 H 120.85542482437496 37.4316472347854 32.346097463943764 H 0.0 **** 0.06
10916 C 50.23445173416698 120.3383543340717 14.667059172523366 C 0.0 **** -0.24
10917 H 51.10359954491 119.88185037537949 14.193570080086268 H 0.0 **** 0.06
10918 H 50.0736912812383 121.33267532796987 14.24894003712436 H 0.0 **** 0.06
10919 H 50.40534986683181 120.41879355171089 15.740243699996071 H 0.0 **** 0.06
10920 H 49.35498014344071 119.72067779563714 14.484206391337224 H 0.0 **** 0.06
10921 C 116.81088244062943 49.507335496511644 55.15408345862758 C 0.0 **** -0.24
10922 H 116.94565964521516 50.556482193565245 55.41761340381072 H 0.0 **** 0.06
10923 H 116.12977863243759 49.038705940817806 55.86491795874619 H 0.0 **** 0.06
10924 H 117.774159959228 48.99901133595557 55.18336871432683 H 0.0 **** 0.06
10925 H 116.39332240291662 49.436506998004546 54.14877019948415 H 0.0 **** 0.06
10926 C 119.49799273031437 79.4487423193469 80.3369956317328 C 0.0 **** -0.24
10927 H 120.35270114291146 79.66479613423817 80.97841594138288 H 0.0 **** 0.06
10928 H 119.82581857813554 78.86002679758838 79.48039891242831 H 0.0 **** 0.06
10929 H 119.06030201653448 80.38504588560238 79.98807117151085 H 0.0 **** 0.06
10930 H 118.7530064956836 78.88707095558365 80.90078505077184 H 0.0 **** 0.06
10931 C 41.41770582068801 29.331403003046233 86.82644289391615 C 0.0 **** -0.24
10932 H 40.93355840373931 28.482341389578437 87.30676492157767 H 0.0 **** 0.06
10933 H 41.583222244119725 29.107851100129523 85.77214757920099 H 0.0 **** 0.06
10934 H 42.374503647156644 29.52634937173039 87.31062728941974 H 0.0 **** 0.06
10935 H 40.77984850994835 30.21147108920337 86.91585760333163 H 0.0 **** 0.06
10936 C 22.404717881931248 84.66045636932061 93.30638513689264 C 0.0 **** -0.24
10937 H 22.21416978680044 84.45919432297951 92.25245739215619 H 0.0 **** 0.06
10938 H 22.646947415543906 83.7271359418912 93.81569309519239 H 0.0 **** 0.06
10939 H 21.5154481810643 85.10119486817514 93.75782585490953 H 0.0 **** 0.06
10940 H 23.240623897425536 85.3534944891114 93.39797645071627 H 0.0 **** 0.06
10941 C 9.84469855489047 123.07676321004101 15.800576597597356 C 0.0 **** -0.24
10942 H 10.545580548020453 122.90035654881673 14.983913942351336 H 0.0 **** 0.06
10943 H 8.830668947091738 123.1323375259547 15.402499659640256 H 0.0 **** 0.06
10944 H 10.09334488424625 124.01500880989477 16.296430304715585 H 0.0 **** 0.06
10945 H 9.910001750930732 122.25835489550005 16.517627527850493 H 0.0 **** 0.06
10946 C 28.360818171954406 61.55675121285418 35.956091372509924 C 0.0 **** -0.24
10947 H 28.279951934983842 61.55832634845518 34.869228059002445 H 0.0 **** 0.06
10948 H 27.45858844523525 61.991635761730265 36.387159467558845 H 0.0 **** 0.06
10949 H 29.22773059274988 62.1457901930728 36.25628742405595 H 0.0 **** 0.06
10950 H 28.477048659690468 60.53259433757643 36.309641705831694 H 0.0 **** 0.06
10951 C 25.782951274686127 84.97941527068775 84.57071806161179 C 0.0 **** -0.24
10952 H 25.941203689399742 86.0574892183819 84.6064037475445 H 0.0 **** 0.06
10953 H 26.381248298170135 84.55151080785527 83.76550739327547 H 0.0 **** 0.06
10954 H 24.72756416279975 84.77360007778378 84.38894645039177 H 0.0 **** 0.06
10955 H 26.080948263829043 84.53754079838036 85.52055033743913 H 0.0 **** 0.06
10956 C 111.189257984369 1.6976489323522337 72.24385023340781 C 0.0 **** -0.24
10957 H 110.77947097166954 1.0889702797936494 71.43839970173251 H 0.0 **** 0.06
10958 H 110.53318907639544 1.6410687508471469 73.11256767227218 H 0.0 **** 0.06
10959 H 111.26780829619081 2.733377713036221 71.91392231718787 H 0.0 **** 0.06
10960 H 112.17937067203981 1.3264890164938663 72.51131419546554 H 0.0 **** 0.06
10961 C 81.58975075935257 98.32343894164711 103.2997072589087 C 0.0 **** -0.24
10962 H 81.98115026904009 98.18300012340796 104.30739822488121 H 0.0 **** 0.06
10963 H 80.95833171638287 97.47581621083404 103.03389832433447 H 0.0 **** 0.06
10964 H 82.41843668177097 98.39453429996604 102.59480667800386 H 0.0 **** 0.06
10965 H 81.00266977278221 99.24100230585469 103.26308642374651 H 0.0 **** 0.06
10966 C 77.12784319267854 81.60421761465426 88.79552077784763 C 0.0 **** -0.24
10967 H 77.36482430448166 80.67453516065254 88.27833881172245 H 0.0 **** 0.06
10968 H 76.84587539711242 82.36344409382107 88.06640145098294 H 0.0 **** 0.06
10969 H 77.99980802653772 81.94168612944392 89.35448048917038 H 0.0 **** 0.06
10970 H 76.29863243643842 81.43475753285841 89.48270236387629 H 0.0 **** 0.06
10971 C 40.00394663365299 25.867805808786187 104.68587272849766 C 0.0 **** -0.24
10972 H 39.91516198856405 26.42052995032941 103.75033756369601 H 0.0 **** 0.06
10973 H 39.999720283957146 24.798285111149937 104.47655884688896 H 0.0 **** 0.06
10974 H 39.16454634120248 26.115384664240793 105.33519509415294 H 0.0 **** 0.06
10975 H 40.93786636785731 26.138024064418516 105.17974901560609 H 0.0 **** 0.06
10976 C 104.33588670046521 76.1737940093258 49.42791156096516 C 0.0 **** -0.24
10977 H 104.29745079024529 75.28928901678606 50.062846396400104 H 0.0 **** 0.06
10978 H 104.30153077298279 75.8705511665472 48.38128212287687 H 0.0 **** 0.06
10979 H 105.26165640220614 76.71762815711958 49.61867226097783 H 0.0 **** 0.06
10980 H 103.4848509222913 76.81763439643719 49.64773948093736 H 0.0 **** 0.06
10981 C 23.68910027651549 5.810556063269189 105.78706261471702 C 0.0 **** -0.24
10982 H 23.389868630316755 6.808078218450305 105.46454330359042 H 0.0 **** 0.06
10983 H 24.62723555209891 5.874475747411793 106.33932635919464 H 0.0 **** 0.06
10984 H 23.82302772797641 5.171558948136834 104.91523308023625 H 0.0 **** 0.06
10985 H 22.916253349556655 5.390951457370107 106.43113117758571 H 0.0 **** 0.06
10986 C 85.61798416392651 34.07337671669396 107.93728145613618 C 0.0 **** -0.24
10987 H 86.70515523467108 34.14973751968287 107.94968259687055 H 0.0 **** 0.06
10988 H 85.24038417480465 34.428288249916946 106.97811630746735 H 0.0 **** 0.06
10989 H 85.20105594388981 34.6822964176867 108.73925798121999 H 0.0 **** 0.06
10990 H 85.3260469082425 33.03317321798016 108.08084333864703 H 0.0 **** 0.06
10991 C 73.16657510630534 106.1921194741899 91.85466145931042 C 0.0 **** -0.24
10992 H 72.13234719546699 105.87067108181411 91.9772879683394 H 0.0 **** 0.06
10993 H 73.56837387882186 105.7799715537957 90.9288987693215 H 0.0 **** 0.06
10994 H 73.759129867144 105.83718584852338 92.69792635766188 H 0.0 **** 0.06
10995 H 73.20701832927921 107.28080001126709 91.81581875984455 H 0.0 **** 0.06
10996 C 44.07760155580843 0.8615544834298419 115.02005965077498 C 0.0 **** -0.24
10997 H 44.50520011406414 1.8520675408194904 114.86528222021954 H 0.0 **** 0.06
10998 H 43.51090099490489 0.5684625506302439 114.13600629995788 H 0.0 **** 0.06
10999 H 43.41546652139132 0.8847211382200726 115.88563819362004 H 0.0 **** 0.06
11000 H 44.87849851307419 0.14390219710767838 115.19382929518655 H 0.0 **** 0.06
11001 C 39.64025632509501 29.81316396446681 37.59119398935647 C 0.0 **** -0.24
11002 H 40.4772615483445 30.50896581967484 37.637472223630056 H 0.0 **** 0.06
11003 H 38.73764718043989 30.306716379423534 37.953625411732304 H 0.0 **** 0.06
11004 H 39.85501673591253 28.945059782413836 38.213985908855705 H 0.0 **** 0.06
11005 H 39.490231431813385 29.492347474989998 36.55993308012839 H 0.0 **** 0.06
11006 C 93.71695917285803 100.81793877876271 12.767817093945553 C 0.0 **** -0.24
11007 H 93.17413792360657 101.3665521317501 11.997408602235467 H 0.0 **** 0.06
11008 H 94.6491714384897 101.33647989825118 12.993602718301133 H 0.0 **** 0.06
11009 H 93.93692501794584 99.81272868820685 12.408957258293995 H 0.0 **** 0.06
11010 H 93.10633469674457 100.75767365335906 13.668371666528941 H 0.0 **** 0.06
11011 C 86.32446833235923 72.8634689646826 69.41195943415732 C 0.0 **** -0.24
11012 H 87.41477056421633 72.89473422481947 69.39542655611137 H 0.0 **** 0.06
11013 H 85.99091292500785 72.27834157895924 70.26866907692192 H 0.0 **** 0.06
11014 H 85.96153063777072 72.4038596453432 68.49291744181363 H 0.0 **** 0.06
11015 H 85.93431967755214 73.87810538168313 69.48932643828826 H 0.0 **** 0.06
11016 C 80.29361383145661 63.091894061303705 72.53756032681763 C 0.0 **** -0.24
11017 H 80.9897303330714 63.650867809755766 71.91153483486356 H 0.0 **** 0.06
11018 H 79.49648476607354 63.7556156980458 72.87478374336423 H 0.0 **** 0.06
11019 H 80.82391731976637 62.69124291608051 73.40133145582621 H 0.0 **** 0.06
11020 H 79.8651440343518 62.2726835757541 71.9607757212076 H 0.0 **** 0.06
11021 C 21.66692647662626 60.48968093858008 115.94644956084659 C 0.0 **** -0.24
11022 H 22.213074373588086 61.429501908230975 115.86371056183285 H 0.0 **** 0.06
11023 H 22.374571436292115 59.665574603349626 116.03616053430213 H 0.0 **** 0.06
11024 H 21.0534598843214 60.34770919492786 115.05613976796522 H 0.0 **** 0.06
11025 H 21.026268222127953 60.5178824476628 116.82752694252437 H 0.0 **** 0.06
11026 C 26.11285227145825 8.847249357545536 112.49634466516147 C 0.0 **** -0.24
11027 H 25.70042475802296 7.906385507494122 112.13190472390272 H 0.0 **** 0.06
11028 H 25.307051305111116 9.47110380202406 112.88258826690276 H 0.0 **** 0.06
11029 H 26.614623115302976 9.365051419095494 111.67946909149464 H 0.0 **** 0.06
11030 H 26.829014966831124 8.643865532812242 113.29289959458066 H 0.0 **** 0.06
11031 C 100.05514546414076 18.191467409388622 56.88955662724362 C 0.0 **** -0.24
11032 H 100.54280825160583 18.3733462446599 57.847400464131454 H 0.0 **** 0.06
11033 H 100.81234284145955 18.013588636742668 56.12534459535246 H 0.0 **** 0.06
11034 H 99.4571958606059 19.06040100013047 56.61554317769145 H 0.0 **** 0.06
11035 H 99.40946929308154 17.317347241869868 56.97169006709791 H 0.0 **** 0.06
11036 C 31.52988962152841 20.70123679781001 119.6165019597658 C 0.0 **** -0.24
11037 H 31.119459185448534 20.683136030539515 120.62633112832003 H 0.0 **** 0.06
11038 H 30.73419522969573 20.922970406757827 118.90518672919877 H 0.0 **** 0.06
11039 H 31.96464606724811 19.729000780555367 119.38354554889071 H 0.0 **** 0.06
11040 H 32.30030163146523 21.46857123283519 119.55163422276038 H 0.0 **** 0.06
11041 C 102.69731169378309 77.32992896838314 4.475025080670864 C 0.0 **** -0.24
11042 H 102.30146534576633 76.34760564637716 4.735148766707546 H 0.0 **** 0.06
11043 H 103.6261166283152 77.50244084634349 5.018575208069336 H 0.0 **** 0.06
11044 H 101.96982495931472 78.0969739341217 4.744162372996431 H 0.0 **** 0.06
11045 H 102.88883429593739 77.37174365837919 3.402461623247584 H 0.0 **** 0.06
11046 C 22.385778240750085 37.61047786644747 96.52993623475983 C 0.0 **** -0.24
11047 H 23.46074495044786 37.49123002125907 96.39265819861167 H 0.0 **** 0.06
11048 H 22.143130507813396 37.531303085729405 97.58901652864675 H 0.0 **** 0.06
11049 H 21.86090102251228 36.83103194330124 95.97693378858028 H 0.0 **** 0.06
11050 H 22.07878188588512 38.58794144946512 96.15744340697754 H 0.0 **** 0.06
11051 C 22.016995074712327 58.31482119612048 4.891367778184012 C 0.0 **** -0.24
11052 H 21.086427586058903 58.82677563931637 4.646124002876398 H 0.0 **** 0.06
11053 H 22.79220854495631 58.61293857168985 4.183868707241199 H 0.0 **** 0.06
11054 H 21.864396892092174 57.237103998603544 4.830481297832556 H 0.0 **** 0.06
11055 H 22.323838424818774 58.582199485173334 5.901433418007375 H 0.0 **** 0.06
11056 C 49.819275380791964 37.31295194093357 113.24332762522161 C 0.0 **** -0.24
11057 H 49.897775274176894 36.68297413505883 112.35763727040062 H 0.0 **** 0.06
11058 H 48.875597201392054 37.858758388893676 113.22027185820383 H 0.0 **** 0.06
11059 H 50.64799735469754 38.020177133792174 113.26121837299783 H 0.0 **** 0.06
11060 H 49.855898989109676 36.68845731823774 114.13699310228436 H 0.0 **** 0.06
11061 C 12.366038003471402 73.03067704256803 100.3852535640967 C 0.0 **** -0.24
11062 H 11.97696659466311 72.20074966491002 99.79641349358366 H 0.0 **** 0.06
11063 H 11.827840520172003 73.94403976569562 100.12628471485387 H 0.0 **** 0.06
11064 H 13.426993310741807 73.16196977774737 100.17255480798764 H 0.0 **** 0.06
11065 H 12.231918277724105 72.81835850577647 101.44567961840305 H 0.0 **** 0.06
11066 C 83.84318252488998 111.25500170077376 92.22083912684272 C 0.0 **** -0.24
11067 H 84.1257068386156 110.73436424502583 93.13633593621519 H 0.0 **** 0.06
11068 H 84.618738529599 111.11236005351148 91.46828683321489 H 0.0 **** 0.06
11069 H 83.73003310235681 112.31874812372783 92.42898676794745 H 0.0 **** 0.06
11070 H 82.89939845712912 110.85424735930562 91.8516450405871 H 0.0 **** 0.06
11071 C 63.72941433126948 85.97867136576625 1.2866806422788954 C 0.0 **** -0.24
11072 H 63.013511481451474 85.71951218310633 0.5068926481317817 H 0.0 **** 0.06
11073 H 64.10574205430407 86.98640420673959 1.114225987138468 H 0.0 **** 0.06
11074 H 64.55932821312047 85.27131718018401 1.2655669101553713 H 0.0 **** 0.06
11075 H 63.239182996142176 85.93479001489479 2.259086605511868 H 0.0 **** 0.06
11076 C 106.00484673995219 9.049223789239122 90.13341566604004 C 0.0 **** -0.24
11077 H 104.97180894238195 9.052115694092116 89.7865868630273 H 0.0 **** 0.06
11078 H 106.45205671948749 10.026606147072538 89.94908517632199 H 0.0 **** 0.06
11079 H 106.56630484274633 8.285882877801285 89.59479042012134 H 0.0 **** 0.06
11080 H 106.02896535136054 8.833754983009399 91.20125280219023 H 0.0 **** 0.06
11081 C 75.82275676414451 73.80971934988685 43.579896697867575 C 0.0 **** -0.24
11082 H 75.83554923315427 74.39441188460967 42.66057811873048 H 0.0 **** 0.06
11083 H 75.1421050306819 74.27145186251113 44.29611809115759 H 0.0 **** 0.06
11084 H 76.82669604022516 73.77518178884654 44.00294727586091 H 0.0 **** 0.06
11085 H 75.48643101186929 72.79581158427018 43.360869778151134 H 0.0 **** 0.06
11086 C 37.34351568126101 71.00321602342214 73.06602894254463 C 0.0 **** -0.24
11087 H 37.541199045404085 71.11162618082366 71.99894445321888 H 0.0 **** 0.06
11088 H 36.45969046473181 70.38198663564124 73.20935973268972 H 0.0 **** 0.06
11089 H 37.17292507451248 71.98596228973592 73.50512723034794 H 0.0 **** 0.06
11090 H 38.20113248210913 70.53318985700056 73.54863292003326 H 0.0 **** 0.06
11091 C 83.04192615374271 12.846309669125219 99.48336194793296 C 0.0 **** -0.24
11092 H 82.06234471978584 12.653553433510268 99.04748366094776 H 0.0 **** 0.06
11093 H 83.79913963774334 12.282667036317605 98.93829825232855 H 0.0 **** 0.06
11094 H 83.04103837678443 12.5386593671806 100.52890926652566 H 0.0 **** 0.06
11095 H 83.26504447231054 13.911248444692887 99.41832098002396 H 0.0 **** 0.06
11096 C 29.962694850971445 80.94185880662451 16.65618364477578 C 0.0 **** -0.24
11097 H 29.437511361301233 81.5713712282357 15.937076434313298 H 0.0 **** 0.06
11098 H 29.241556519194035 80.32018682999126 17.188187633779215 H 0.0 **** 0.06
11099 H 30.495350222370803 81.57094674426617 17.368062306824452 H 0.0 **** 0.06
11100 H 30.67374272910297 80.30444626723238 16.130454735609348 H 0.0 **** 0.06
11101 C 94.63237949778429 65.65591704158341 30.772659742720215 C 0.0 **** -0.24
11102 H 95.42175463218176 66.40638056461006 30.73069424365506 H 0.0 **** 0.06
11103 H 94.87540935179085 64.83703290657115 30.0952507135356 H 0.0 **** 0.06
11104 H 93.68680370680106 66.1074293597324 30.473859287754543 H 0.0 **** 0.06
11105 H 94.5480932791886 65.27372486005032 31.789983524946116 H 0.0 **** 0.06
11106 C 98.01529756239245 23.529245154819762 5.103485261514351 C 0.0 **** -0.24
11107 H 97.94501064478885 22.9683338279971 4.171274467078973 H 0.0 **** 0.06
11108 H 98.29421525166919 22.855894317809728 5.913393422219485 H 0.0 **** 0.06
11109 H 97.05061050248918 23.985381740260685 5.325131337935744 H 0.0 **** 0.06
11110 H 98.770432956825 24.30927768251898 5.000603964875495 H 0.0 **** 0.06
11111 C 91.94396772973218 6.986996655696487 82.91097489173927 C 0.0 **** -0.24
11112 H 93.00817925695972 6.845778437659419 83.10416143067656 H 0.0 **** 0.06
11113 H 91.67807984647621 8.029389526224008 83.08911666938553 H 0.0 **** 0.06
11114 H 91.36610191859123 6.344231824098813 83.57496071584447 H 0.0 **** 0.06
11115 H 91.72600529880071 6.727313383169303 81.8745875442165 H 0.0 **** 0.06
11116 C 82.5798886673579 84.94179553724352 18.435900481773672 C 0.0 **** -0.24
11117 H 82.23747641568877 84.46561716741758 19.354604847774965 H 0.0 **** 0.06
11118 H 83.6397481968702 84.7322792103107 18.291975558998217 H 0.0 **** 0.06
11119 H 82.42782277260811 86.01834461174283 18.506806812100166 H 0.0 **** 0.06
11120 H 82.0138220655445 84.5491361452426 17.59172226272031 H 0.0 **** 0.06
11121 C 31.148589930349544 68.55424414920594 78.87739309970459 C 0.0 **** -0.24
11122 H 31.314053999772987 68.17314313491545 77.86938744629667 H 0.0 **** 0.06
11123 H 30.078322619628487 68.63121833178661 79.0661138125297 H 0.0 **** 0.06
11124 H 31.606662834484943 69.53887190230364 78.97260404808036 H 0.0 **** 0.06
11125 H 31.597909473595507 67.87254903338118 79.60009944877778 H 0.0 **** 0.06
11126 C 61.955266149870596 13.295786341253681 45.38707611654738 C 0.0 **** -0.24
11127 H 62.77852925683075 12.801357908440476 45.902063546248485 H 0.0 **** 0.06
11128 H 61.32352065674411 13.803614538342767 46.11601086934573 H 0.0 **** 0.06
11129 H 61.36539022189902 12.553747807775043 44.847926811257736 H 0.0 **** 0.06
11130 H 62.353447031798254 14.024706413019604 44.68092865069872 H 0.0 **** 0.06
11131 C 21.802230993173282 62.29682957194399 58.98588281335225 C 0.0 **** -0.24
11132 H 21.30625791021862 63.218908261659806 59.2906160581429 H 0.0 **** 0.06
11133 H 21.556119553929705 61.503319790685566 59.69227657999541 H 0.0 **** 0.06
11134 H 22.88080367410845 62.452130618925764 58.97442702041694 H 0.0 **** 0.06
11135 H 21.46407303464059 62.01461680726584 57.98974238126061 H 0.0 **** 0.06
11136 C 1.2565933449043172 120.93231559889551 70.11360162949423 C 0.0 **** -0.24
11137 H 0.30973807183009683 121.20533498326976 70.57927340783412 H 0.0 **** 0.06
11138 H 2.018148880364322 121.66537237309954 70.38063284180397 H 0.0 **** 0.06
11139 H 1.135175291013411 120.9130839825325 69.03024225029257 H 0.0 **** 0.06
11140 H 1.5621746024870617 119.94589666985262 70.4626682512189 H 0.0 **** 0.06
11141 C 1.1106182436711833 51.42682973681408 36.57538382338384 C 0.0 **** -0.24
11142 H 0.23237825371194276 52.04947394690038 36.74488129911077 H 0.0 **** 0.06
11143 H 1.5539908125600732 51.67975605247272 35.61199616448009 H 0.0 **** 0.06
11144 H 0.8169832997075446 50.377256567587274 36.577475369006216 H 0.0 **** 0.06
11145 H 1.8381925658506475 51.60157661869894 37.36794728307853 H 0.0 **** 0.06
11146 C 112.17041699302763 64.77067603881031 19.45766128685203 C 0.0 **** -0.24
11147 H 111.41366093224374 64.55418708548983 20.211239728980587 H 0.0 **** 0.06
11148 H 112.3250068157424 65.84857351974554 19.398047703011866 H 0.0 **** 0.06
11149 H 111.83616839963801 64.39727853059757 18.489167125395657 H 0.0 **** 0.06
11150 H 113.10643775659327 64.28357722672528 19.732078153681332 H 0.0 **** 0.06
11151 C 83.79180029531105 82.88033538578078 71.79746701195789 C 0.0 **** -0.24
11152 H 83.13155994924944 82.66705138515469 72.63846246889197 H 0.0 **** 0.06
11153 H 84.395192795224 83.75973487867321 72.02380914178922 H 0.0 **** 0.06
11154 H 83.19488975032368 83.06777903044978 70.90510196912642 H 0.0 **** 0.06
11155 H 84.44660127034425 82.02561921761001 71.62485555390266 H 0.0 **** 0.06
11156 C 61.01907856358923 100.91098729854582 45.195869161476026 C 0.0 **** -0.24
11157 H 61.930051269473296 101.24233153775435 44.69535688154866 H 0.0 **** 0.06
11158 H 61.25087020148975 100.64051146269966 46.22652197448997 H 0.0 **** 0.06
11159 H 60.6137234641656 100.0444151738352 44.6752727674982 H 0.0 **** 0.06
11160 H 60.286601894436345 101.71749507048321 45.187337246988875 H 0.0 **** 0.06
11161 C 75.06705533913623 101.70829549143511 33.266606393761265 C 0.0 **** -0.24
11162 H 74.84129291152945 101.08481235374634 34.13107313770928 H 0.0 **** 0.06
11163 H 74.67278936944547 102.71154835365984 33.42964862866589 H 0.0 **** 0.06
11164 H 74.60647594599592 101.27733297583943 32.377397383413864 H 0.0 **** 0.06
11165 H 76.14669691569648 101.7597382390692 33.128369718833426 H 0.0 **** 0.06
11166 C 123.88804455057385 100.79007970905295 98.16843579003532 C 0.0 **** -0.24
11167 H 124.78018614155528 100.34585518726377 97.72832489363114 H 0.0 **** 0.06
11168 H 123.31846005122108 101.3037831185662 97.39352092361659 H 0.0 **** 0.06
11169 H 124.17987104573245 101.50411736643738 98.93841839763346 H 0.0 **** 0.06
11170 H 123.27323350303996 100.00689234135655 98.61263693981743 H 0.0 **** 0.06
11171 C 14.749810265906042 9.013407757706247 53.4611505304392 C 0.0 **** -0.24
11172 H 14.747998499044257 7.927664726736538 53.36694610098195 H 0.0 **** 0.06
11173 H 15.156909575326459 9.29226551736329 54.43422315381562 H 0.0 **** 0.06
11174 H 13.729225710032537 9.386551622466413 53.373488967460844 H 0.0 **** 0.06
11175 H 15.364392085587927 9.44613094616902 52.672053888060134 H 0.0 **** 0.06
11176 C 18.00229609441908 91.45147064112473 89.44690579422667 C 0.0 **** -0.24
11177 H 18.24760325465803 92.43890695087947 89.8375598906552 H 0.0 **** 0.06
11178 H 17.077959540214465 91.50758102598786 88.87193860558602 H 0.0 **** 0.06
11179 H 17.873096281098583 90.75562095979114 90.27595304410198 H 0.0 **** 0.06
11180 H 18.811487689293813 91.1047674310878 88.80419314267976 H 0.0 **** 0.06
11181 C 113.1854090138923 100.7752944915895 69.15755735683598 C 0.0 **** -0.24
11182 H 112.45757385061711 100.83973023726168 69.96614173432421 H 0.0 **** 0.06
11183 H 113.91661387347659 101.57805106916621 69.26288612099513 H 0.0 **** 0.06
11184 H 112.67411811756989 100.8719780402254 68.20071279154708 H 0.0 **** 0.06
11185 H 113.69446819873173 99.81194600035823 69.20259286743506 H 0.0 **** 0.06
11186 C 62.64756887704692 91.42045182782343 124.2443533660792 C 0.0 **** -0.24
11187 H 61.64514152781983 91.06188509976565 124.47971703565237 H 0.0 **** 0.06
11188 H 62.62583900814377 92.50351824996113 124.12088806829884 H 0.0 **** 0.06
11189 H 62.99272916476721 90.95539338168001 123.32183364470721 H 0.0 **** 0.06
11190 H 63.32510608148067 91.16084635975804 125.05841607913186 H 0.0 **** 0.06
11191 C 23.972842729576584 87.58033099474795 67.42312870289126 C 0.0 **** -0.24
11192 H 23.47499221240146 87.72322429463645 66.46386226756633 H 0.0 **** 0.06
11193 H 24.931154586108484 88.09966292282519 67.41535422343136 H 0.0 **** 0.06
11194 H 24.13647565291597 86.51627167134325 67.59197389173349 H 0.0 **** 0.06
11195 H 23.346789466808033 87.98284041289054 68.22048387777659 H 0.0 **** 0.06
11196 C 57.66601097807418 13.337144424875618 110.95222283338808 C 0.0 **** -0.24
11197 H 57.81096551549928 12.916843550281385 109.95695549726331 H 0.0 **** 0.06
11198 H 58.117424784126285 14.328495784208172 110.99810087653402 H 0.0 **** 0.06
11199 H 58.135554790094346 12.689024396884435 111.69220306618965 H 0.0 **** 0.06
11200 H 56.598426258747054 13.413149564530016 111.1618960709855 H 0.0 **** 0.06
11201 C 45.42665563021658 5.680585145753113 13.440319319810158 C 0.0 **** -0.24
11202 H 44.83332041171182 5.100886620687149 14.146297052990406 H 0.0 **** 0.06
11203 H 46.43657316364044 5.272918203190159 13.39183255089739 H 0.0 **** 0.06
11204 H 45.46934907266326 6.719909288193236 13.768842382574007 H 0.0 **** 0.06
11205 H 44.96632746480859 5.631195816322617 12.453765542266183 H 0.0 **** 0.06
11206 C 77.3948156303668 38.16071387692166 52.453502413469664 C 0.0 **** -0.24
11207 H 77.04864429652173 37.40229689152525 53.155697394431655 H 0.0 **** 0.06
11208 H 78.36067744464168 38.54621098572463 52.780995431031016 H 0.0 **** 0.06
11209 H 76.67252797155652 38.9759338103225 52.414957799241336 H 0.0 **** 0.06
11210 H 77.49683583583504 37.71913582560643 51.46197710778088 H 0.0 **** 0.06
11211 C 32.13622137497447 109.65858748248064 18.53317515467512 C 0.0 **** -0.24
11212 H 31.353919759886764 110.28664723529323 18.10711667222722 H 0.0 **** 0.06
11213 H 32.830455736348654 109.35969096479812 17.746841057907716 H 0.0 **** 0.06
11214 H 31.686759411582045 108.77053376787836 18.97774377809276 H 0.0 **** 0.06
11215 H 32.67309901867708 110.21755825174432 19.299396248494702 H 0.0 **** 0.06
11216 C 40.504495315773056 97.88552992811547 69.1330656143893 C 0.0 **** -0.24
11217 H 39.60752461137153 97.44179576754573 69.56373160372237 H 0.0 **** 0.06
11218 H 40.23323606007676 98.47454532575293 68.25698400788997 H 0.0 **** 0.06
11219 H 41.196242952611755 97.09518657047776 68.84033479768391 H 0.0 **** 0.06
11220 H 40.98097763903198 98.5305920486854 69.8712120482611 H 0.0 **** 0.06
11221 C 35.3850578861032 61.949299531872185 54.54422564167581 C 0.0 **** -0.24
11222 H 34.69732437674176 61.815499123898036 53.70907727676507 H 0.0 **** 0.06
11223 H 34.87899530966635 61.69190729803151 55.47492679564871 H 0.0 **** 0.06
11224 H 35.710698048850304 62.98942865934475 54.58226058499659 H 0.0 **** 0.06
11225 H 36.25043964903969 61.30154270690642 54.409254787399846 H 0.0 **** 0.06
11226 C 18.42931874684251 59.004389881099684 110.59952341687905 C 0.0 **** -0.24
11227 H 18.93912536769311 58.47967013961883 111.40769736109962 H 0.0 **** 0.06
11228 H 17.82049043633768 59.807069757990206 111.01592325382622 H 0.0 **** 0.06
11229 H 17.790463054633946 58.30612260482539 110.05922637135565 H 0.0 **** 0.06
11230 H 19.167968202816397 59.42531641381257 109.91725180552599 H 0.0 **** 0.06
11231 C 86.17779224417745 111.81337512173084 32.655691980779835 C 0.0 **** -0.24
11232 H 86.06028577041744 110.7994709389744 33.03806514849512 H 0.0 **** 0.06
11233 H 85.24398339177614 112.13886008112325 32.197489772153176 H 0.0 **** 0.06
11234 H 86.9743636462079 111.82963278294041 31.91172463849722 H 0.0 **** 0.06
11235 H 86.43411853775149 112.48237170234589 33.47670481353427 H 0.0 **** 0.06
11236 C 77.02977333666679 64.46864066076301 25.097606250298185 C 0.0 **** -0.24
11237 H 77.68383799432213 65.2580207572937 25.46954341686981 H 0.0 **** 0.06
11238 H 76.01864133734092 64.6271951684534 25.474462101516536 H 0.0 **** 0.06
11239 H 77.39735654794173 63.50119884008734 25.4400294166374 H 0.0 **** 0.06
11240 H 77.01947757469857 64.4891154756578 24.00839395588784 H 0.0 **** 0.06
11241 C 26.758869726526882 21.506931146126746 14.45975847168873 C 0.0 **** -0.24
11242 H 27.837613963050842 21.422103076998752 14.58825259615736 H 0.0 **** 0.06
11243 H 26.302035193536625 21.80260673373793 15.40503089117341 H 0.0 **** 0.06
11244 H 26.35413563906465 20.543943927161195 14.146071176052033 H 0.0 **** 0.06
11245 H 26.54111374049387 22.257010993318374 13.700327639324996 H 0.0 **** 0.06
11246 C 72.8795985379242 37.71435514624214 56.24509445801266 C 0.0 **** -0.24
11247 H 72.01975805743726 38.38238894356303 56.289847935568886 H 0.0 **** 0.06
11248 H 73.54293971208551 38.03022844300948 55.4398912186672 H 0.0 **** 0.06
11249 H 72.53937113460627 36.69531636292248 56.058378014139265 H 0.0 **** 0.06
11250 H 73.41589047748505 37.74905589690256 57.19353556530683 H 0.0 **** 0.06
11251 C 29.980855953236983 9.267451284803911 104.17234586965074 C 0.0 **** -0.24
11252 H 29.6488907465137 9.97644635157883 103.41219723733673 H 0.0 **** 0.06
11253 H 29.253926356851707 8.459008537310183 104.25533041861537 H 0.0 **** 0.06
11254 H 30.069636820309597 9.778779839047928 105.13105374668122 H 0.0 **** 0.06
11255 H 30.949746136196666 8.857588736523795 103.88789870855453 H 0.0 **** 0.06
11256 C 27.11227484798232 79.91087980726583 98.65968637920736 C 0.0 **** -0.24
11257 H 26.855668576965144 80.51365443538467 99.53080386412913 H 0.0 **** 0.06
11258 H 26.59957190645366 78.95115855557304 98.71944830350199 H 0.0 **** 0.06
11259 H 28.189633908954335 79.74756523443563 98.63603258331582 H 0.0 **** 0.06
11260 H 26.80317893382997 80.43261586149431 97.7533156082014 H 0.0 **** 0.06
11261 C 76.93302252753146 44.533741143830326 46.62080654119262 C 0.0 **** -0.24
11262 H 77.80508919333204 45.07526525105705 46.98960617206879 H 0.0 **** 0.06
11263 H 77.24453403125624 43.820757803324874 45.857453381932004 H 0.0 **** 0.06
11264 H 76.22299162454703 45.23986980765657 46.19138473956636 H 0.0 **** 0.06
11265 H 76.46130141496187 44.00150988515832 47.446954710431584 H 0.0 **** 0.06
11266 C 90.41188083628333 104.29477032616659 80.70421037653891 C 0.0 **** -0.24
11267 H 90.91990216296159 105.25459747369152 80.6076499476439 H 0.0 **** 0.06
11268 H 89.92246824070051 104.04757841129145 79.76124257884007 H 0.0 **** 0.06
11269 H 89.66589941078553 104.35701716813057 81.49582814578827 H 0.0 **** 0.06
11270 H 91.13921630788727 103.52183734840416 80.95063760845599 H 0.0 **** 0.06
11271 C 94.84107238600646 57.14897591760632 58.28990215051758 C 0.0 **** -0.24
11272 H 93.86975344449671 57.49538210285884 57.936119726580756 H 0.0 **** 0.06
11273 H 95.19018537734597 57.80239363939302 59.08976409774036 H 0.0 **** 0.06
11274 H 95.55513836003206 57.169319448396735 57.4664765953147 H 0.0 **** 0.06
11275 H 94.74806519790297 56.13074199841584 58.66627563855198 H 0.0 **** 0.06
11276 C 1.3624929790505718 49.47368021971957 64.63491711596589 C 0.0 **** -0.24
11277 H 1.5168091807926487 48.40341395217834 64.50140576730837 H 0.0 **** 0.06
11278 H 0.3149206692122988 49.66311940330337 64.86958235072541 H 0.0 **** 0.06
11279 H 1.6285600259747497 49.996386083068955 63.715318998153805 H 0.0 **** 0.06
11280 H 1.988996333240891 49.83221621188159 65.45127375609422 H 0.0 **** 0.06
11281 C 26.78421928916123 66.99125055017043 94.70755024385504 C 0.0 **** -0.24
11282 H 25.945604952638107 66.49373339906208 94.2210624722107 H 0.0 **** 0.06
11283 H 26.836525380818912 68.02667659731479 94.37230311985394 H 0.0 **** 0.06
11284 H 27.71019398423371 66.47763753210094 94.44925152063715 H 0.0 **** 0.06
11285 H 26.644384132417883 66.96534384856092 95.78875731906237 H 0.0 **** 0.06
11286 C 60.07453615573192 1.222878403453194 50.821410090418 C 0.0 **** -0.24
11287 H 61.07182268674512 1.0264623992988504 50.42758266137041 H 0.0 **** 0.06
11288 H 59.610535994994095 0.2833708343586636 51.12138021807304 H 0.0 **** 0.06
11289 H 59.46834218278917 1.6989033286947688 50.05106548404464 H 0.0 **** 0.06
11290 H 60.14928634192471 1.8843505776394522 51.68525252209483 H 0.0 **** 0.06
11291 C 38.45571018062719 42.433435180320174 19.93506350519573 C 0.0 **** -0.24
11292 H 37.427134855071984 42.67520236459731 19.668466238451913 H 0.0 **** 0.06
11293 H 38.763354666713155 43.04263137368716 20.784709638422612 H 0.0 **** 0.06
11294 H 39.107975481727436 42.63582006864934 19.085689602102775 H 0.0 **** 0.06
11295 H 38.52244751803798 41.37804991564971 20.201023704361035 H 0.0 **** 0.06
11296 C 52.23832849778381 115.53128444608058 80.65257245702885 C 0.0 **** -0.24
11297 H 51.16463056939267 115.71924779615836 80.65207483820599 H 0.0 **** 0.06
11298 H 52.51664764515559 115.01215815059754 79.73585003045295 H 0.0 **** 0.06
11299 H 52.499190367464536 114.91533809442029 81.51279036369887 H 0.0 **** 0.06
11300 H 52.772151722927475 116.48025248430918 80.70982776614517 H 0.0 **** 0.06
11301 C 59.98906738826355 77.96889979184603 78.86040545672151 C 0.0 **** -0.24
11302 H 59.78534037048013 77.13108682677974 78.19297569449675 H 0.0 **** 0.06
11303 H 59.29338634788675 78.77996422095042 78.64686377184971 H 0.0 **** 0.06
11304 H 61.01122535376075 78.31546573490897 78.70590016736516 H 0.0 **** 0.06
11305 H 59.866661363750296 77.64643420503734 79.89451494358099 H 0.0 **** 0.06
11306 C 112.09685569934062 21.61214328372914 112.26947086942468 C 0.0 **** -0.24
11307 H 112.09361263878459 22.436308931038525 112.98375740049545 H 0.0 **** 0.06
11308 H 111.07136032834345 21.377291550382814 111.98198228442567 H 0.0 **** 0.06
11309 H 112.55660380458089 20.737144455545582 112.7276830207885 H 0.0 **** 0.06
11310 H 112.66462549245642 21.90100876247724 111.38508922364514 H 0.0 **** 0.06
11311 C 82.73127594576403 62.412208462782985 52.18742735929676 C 0.0 **** -0.24
11312 H 82.59662351461338 63.3086046420982 52.792555697225424 H 0.0 **** 0.06
11313 H 83.77263971910565 62.09420790297612 52.23773483520014 H 0.0 **** 0.06
11314 H 82.4656507997222 62.62854432931158 51.152969169058565 H 0.0 **** 0.06
11315 H 82.09003477798998 61.61749063201137 52.569445779752115 H 0.0 **** 0.06
11316 C 15.253198507747925 89.40994698699124 21.581957078509078 C 0.0 **** -0.24
11317 H 14.315555156749497 89.23078246751909 22.10907545552513 H 0.0 **** 0.06
11318 H 15.778539047477693 88.46528356182712 21.44459263140152 H 0.0 **** 0.06
11319 H 15.874120220706374 90.09006670868412 22.166499795903746 H 0.0 **** 0.06
11320 H 15.043392603802175 89.855077264722 20.609263274794472 H 0.0 **** 0.06
11321 C 119.90612299292053 70.50728459679817 43.21658370189459 C 0.0 **** -0.24
11322 H 119.84336763106029 69.71826105766849 43.96552247707058 H 0.0 **** 0.06
11323 H 120.22269274840573 71.43583775016623 43.69324020315389 H 0.0 **** 0.06
11324 H 118.92791081121618 70.65091078418095 42.75674655695667 H 0.0 **** 0.06
11325 H 120.6297082057236 70.22630711258086 42.45159691756362 H 0.0 **** 0.06
11326 C 53.821889137222854 105.53036683689191 112.90179676299016 C 0.0 **** -0.24
11327 H 54.17485850613937 105.5191934810722 111.87084988807189 H 0.0 **** 0.06
11328 H 53.51579295395217 106.5415035219244 113.17063398502674 H 0.0 **** 0.06
11329 H 54.6259329974622 105.20609460078524 113.56309680123087 H 0.0 **** 0.06
11330 H 52.9731968611371 104.85367306800899 113.00239339319745 H 0.0 **** 0.06
11331 C 22.121987616963942 32.82799277130556 63.33152701748837 C 0.0 **** -0.24
11332 H 21.57239365862997 32.042588979017324 62.81293945755341 H 0.0 **** 0.06
11333 H 22.563358398826928 32.42255864407721 64.2423067607613 H 0.0 **** 0.06
11334 H 21.44083281985705 33.638763574979805 63.587017668214955 H 0.0 **** 0.06
11335 H 22.911418009203402 33.20765075219393 62.682491420280854 H 0.0 **** 0.06
11336 C 98.81461553718569 33.332343548914054 50.28543629426704 C 0.0 **** -0.24
11337 H 99.79984690224765 33.7411770671244 50.505717761402394 H 0.0 **** 0.06
11338 H 98.04981166940658 34.05425557610198 50.57251781072631 H 0.0 **** 0.06
11339 H 98.6705966375915 32.408553179065024 50.84625591365656 H 0.0 **** 0.06
11340 H 98.73732188546316 33.12543718771835 49.21771667091454 H 0.0 **** 0.06
11341 C 26.03097911881079 70.14747866486574 20.3761046816291 C 0.0 **** -0.24
11342 H 26.41721849029622 69.44480977174483 21.114945205387244 H 0.0 **** 0.06
11343 H 25.479806141980617 70.94039866383642 20.881934639886992 H 0.0 **** 0.06
11344 H 25.3667598810012 69.62215494260373 19.68990901462064 H 0.0 **** 0.06
11345 H 26.861393259750912 70.57948380987922 19.817648223530682 H 0.0 **** 0.06
11346 C 21.070337655741994 16.755974380315877 22.88307175092966 C 0.0 **** -0.24
11347 H 21.96885002184964 17.374014063062475 22.87530947809828 H 0.0 **** 0.06
11348 H 20.636622940062175 16.735190207171627 21.882293864705787 H 0.0 **** 0.06
11349 H 20.34838121002697 17.173097683765945 23.584311143334915 H 0.0 **** 0.06
11350 H 21.3300727101728 15.742466020586733 23.188004840037088 H 0.0 **** 0.06
11351 C 25.455032947595377 37.10144378862423 42.425272631414785 C 0.0 **** -0.24
11352 H 26.498978653717195 36.80839117712526 42.53692494972053 H 0.0 **** 0.06
11353 H 25.02374765906532 36.58994550799425 41.56538242948716 H 0.0 **** 0.06
11354 H 25.395549952973333 38.179173767081934 42.27528415314431 H 0.0 **** 0.06
11355 H 24.903784269580648 36.82848668586832 43.325555955917594 H 0.0 **** 0.06
11356 C 64.76763330753904 4.716000761939455 26.002688675774436 C 0.0 **** -0.24
11357 H 64.73783413698119 4.6881325853075 27.092562134286027 H 0.0 **** 0.06
11358 H 64.91730121162034 3.7066041200285724 25.617981373933617 H 0.0 **** 0.06
11359 H 65.5893509377052 5.35470600789958 25.678283885081385 H 0.0 **** 0.06
11360 H 63.82623470158437 5.114729572418156 25.62436378826152 H 0.0 **** 0.06
11361 C 52.62791656544624 26.172068030822686 90.27976263175802 C 0.0 **** -0.24
11362 H 53.656882335873206 26.109708773762065 90.63420936056579 H 0.0 **** 0.06
11363 H 52.05884797547134 25.327837786752355 90.66913385024677 H 0.0 **** 0.06
11364 H 52.61701248952147 26.146365141311605 89.18985520426159 H 0.0 **** 0.06
11365 H 52.18098142319678 27.103486404720513 90.62588608416695 H 0.0 **** 0.06
11366 C 21.012493790379004 114.04134151830644 76.98326449377393 C 0.0 **** -0.24
11367 H 21.641335005166027 114.26157099854306 77.84541202376892 H 0.0 **** 0.06
11368 H 21.44467133552434 113.2145658018301 76.41989235133687 H 0.0 **** 0.06
11369 H 20.95026602089473 114.92315918420259 76.34405707759814 H 0.0 **** 0.06
11370 H 20.013295416032236 113.76770122324338 77.32222217290246 H 0.0 **** 0.06
11371 C 70.53739991243489 73.79757309505575 99.2499649268922 C 0.0 **** -0.24
11372 H 70.14900001947129 74.33688145121616 100.11453752980304 H 0.0 **** 0.06
11373 H 69.73214556477572 73.22791971499302 98.78540577651283 H 0.0 **** 0.06
11374 H 71.32684411516576 73.11813389217713 99.57056733321434 H 0.0 **** 0.06
11375 H 70.94034879438743 74.50919866631389 98.52921048834564 H 0.0 **** 0.06
11376 C 92.38520463710623 123.06894457558505 92.08942348040895 C 0.0 **** -0.24
11377 H 93.40083069920466 122.67778999064488 92.04611751048328 H 0.0 **** 0.06
11378 H 91.73859625112499 122.472533545866 91.4454427289503 H 0.0 **** 0.06
11379 H 92.38017202170937 124.10526674191547 91.75184424648538 H 0.0 **** 0.06
11380 H 92.02034320590485 123.01953481226883 93.11624021951941 H 0.0 **** 0.06
11381 C 4.040919401164928 25.653116179534493 2.852972169706618 C 0.0 **** -0.24
11382 H 4.31808700173238 24.66715263692143 2.4818944922192685 H 0.0 **** 0.06
11383 H 4.211510697934642 26.395723792514758 2.073533109129727 H 0.0 **** 0.06
11384 H 4.64775508208993 25.89640036060888 3.7252748602135455 H 0.0 **** 0.06
11385 H 2.9872858876608177 25.653900602669296 3.1324386590188453 H 0.0 **** 0.06
11386 C 87.65815279207393 82.66652092822788 18.18362530362043 C 0.0 **** -0.24
11387 H 86.59813189083147 82.44992071027045 18.31770276205998 H 0.0 **** 0.06
11388 H 87.87116313621718 82.79604522597258 17.122769645290134 H 0.0 **** 0.06
11389 H 88.24984828768942 81.83911699892536 18.575626450844936 H 0.0 **** 0.06
11390 H 87.91201613714006 83.58143056344335 18.720791547087742 H 0.0 **** 0.06
11391 C 122.88188005430514 60.98090289359355 119.93654669472754 C 0.0 **** -0.24
11392 H 123.60534264649735 61.12978586436867 119.13576371733288 H 0.0 **** 0.06
11393 H 122.22024490092693 60.15334121538774 119.67974068886343 H 0.0 **** 0.06
11394 H 122.2939391914372 61.89004782799307 120.06695297245746 H 0.0 **** 0.06
11395 H 123.40732994892264 60.751505039466636 120.86308254988367 H 0.0 **** 0.06
11396 C 95.33072900370834 37.397218945374334 74.5302343813607 C 0.0 **** -0.24
11397 H 96.28589785975399 37.445485368175696 75.05380438956051 H 0.0 **** 0.06
11398 H 94.69383458898169 38.21796407381896 74.86138795527233 H 0.0 **** 0.06
11399 H 94.84344274246897 36.44737843609528 74.75084450110447 H 0.0 **** 0.06
11400 H 95.50122055885673 37.47784499738805 73.45684220842476 H 0.0 **** 0.06
11401 C 29.07745382592242 58.87764804744462 80.85353724483576 C 0.0 **** -0.24
11402 H 29.180095425282587 58.957533274352926 81.93560782622762 H 0.0 **** 0.06
11403 H 28.57728254235576 57.94176561454961 80.60423126570589 H 0.0 **** 0.06
11404 H 30.064479079756097 58.896639545831405 80.39316229574905 H 0.0 **** 0.06
11405 H 28.48709720996608 59.71561976787136 80.48297123816016 H 0.0 **** 0.06
11406 C 119.47264983631425 107.04878047719373 122.36310784681369 C 0.0 **** -0.24
11407 H 119.34798570089413 106.25842267940763 121.6225012412669 H 0.0 **** 0.06
11408 H 119.68567280278006 106.60399081287238 123.33499470241142 H 0.0 **** 0.06
11409 H 118.55805179499373 107.63692837435272 122.42391141430281 H 0.0 **** 0.06
11410 H 120.30155319617694 107.69356522392235 122.06961065106591 H 0.0 **** 0.06
11411 C 47.352740635296655 73.7678019371641 90.26447873385538 C 0.0 **** -0.24
11412 H 48.065693101623495 73.20257306828243 89.66517184084671 H 0.0 **** 0.06
11413 H 47.21129312355012 73.27151756409864 91.22496515701437 H 0.0 **** 0.06
11414 H 46.399427430816615 73.82237306980494 89.74002133329766 H 0.0 **** 0.06
11415 H 47.734872256958084 74.7754595441193 90.42837591633426 H 0.0 **** 0.06
11416 C 27.975394538558383 30.79530204081817 70.15700064267706 C 0.0 **** -0.24
11417 H 26.932009949657697 30.935303493044273 69.87525275013876 H 0.0 **** 0.06
11418 H 28.229992182786184 29.736579800822255 70.09248661169656 H 0.0 **** 0.06
11419 H 28.126087421561245 31.14370120205507 71.17817953095842 H 0.0 **** 0.06
11420 H 28.613322648902155 31.363997155910283 69.48093166437914 H 0.0 **** 0.06
11421 C 119.8556329641365 65.89318138212695 80.3462898917241 C 0.0 **** -0.24
11422 H 119.35475997405129 66.71248586371614 80.86104232519153 H 0.0 **** 0.06
11423 H 119.143532637324 65.08973104265336 80.16148915523686 H 0.0 **** 0.06
11424 H 120.67241438784947 65.5206059306272 80.96579407503744 H 0.0 **** 0.06
11425 H 120.2554752638101 66.25071688418096 79.39694524763983 H 0.0 **** 0.06
11426 C 95.91901664359592 44.32087091282011 61.075985408037624 C 0.0 **** -0.24
11427 H 95.46230977417325 44.28732709366261 62.06496636736628 H 0.0 **** 0.06
11428 H 96.63897170786954 45.1383132737814 61.03638238150684 H 0.0 **** 0.06
11429 H 95.14633489748324 44.47893501821224 60.324009123823856 H 0.0 **** 0.06
11430 H 96.42943461923655 43.377289294461484 60.8792241152226 H 0.0 **** 0.06
11431 C 97.61561952110998 121.36889080393155 38.014565099280446 C 0.0 **** -0.24
11432 H 98.1886949760964 122.29538960235547 38.05194440356573 H 0.0 **** 0.06
11433 H 96.565600978501 121.58263140445277 38.217463576520146 H 0.0 **** 0.06
11434 H 97.99756830129763 120.67564521703079 38.76360339073787 H 0.0 **** 0.06
11435 H 97.71055202324459 120.92338591982082 37.024366170373284 H 0.0 **** 0.06
11436 C 21.10338309809734 81.34330713495956 4.519184607072958 C 0.0 **** -0.24
11437 H 21.48334759045065 82.18708060775867 5.093907096109206 H 0.0 **** 0.06
11438 H 21.87925585450793 80.98773241277092 3.840986403057883 H 0.0 **** 0.06
11439 H 20.233791083086572 81.65912234528253 3.942026710360949 H 0.0 **** 0.06
11440 H 20.817691197811342 80.54078376077979 5.197954809269021 H 0.0 **** 0.06
11441 C 84.9002150941758 55.9652478860303 100.87981066449768 C 0.0 **** -0.24
11442 H 84.2748438288418 55.681403016004865 101.72643726169608 H 0.0 **** 0.06
11443 H 85.61470215331885 55.16858374730414 100.67261945092497 H 0.0 **** 0.06
11444 H 85.4379585766891 56.88320878251979 101.11778643086637 H 0.0 **** 0.06
11445 H 84.27252794135211 56.129357841556 100.00409527034125 H 0.0 **** 0.06
11446 C 66.77494682922128 85.53515482826873 17.19749171105761 C 0.0 **** -0.24
11447 H 67.34057383640767 84.7464996607885 17.69216406997296 H 0.0 **** 0.06
11448 H 67.37097661021942 86.4476394175712 17.169885363385816 H 0.0 **** 0.06
11449 H 65.85198742720488 85.71988256065951 17.747661997773747 H 0.0 **** 0.06
11450 H 66.53580901093929 85.22737943783002 16.179813917256553 H 0.0 **** 0.06
11451 C 99.3375830131593 94.31222267111676 80.77889448756731 C 0.0 **** -0.24
11452 H 99.73370049357095 94.49219577482725 81.77878117252124 H 0.0 **** 0.06
11453 H 100.16398958947735 94.21042314217758 80.0746595867414 H 0.0 **** 0.06
11454 H 98.7086248491284 95.15158216623061 80.48244893262945 H 0.0 **** 0.06
11455 H 98.7458723262838 93.39727299303829 80.7813867857497 H 0.0 **** 0.06
11456 C 106.77008879118324 112.92714102550781 92.79302376663237 C 0.0 **** -0.24
11457 H 106.63245436467417 111.96251875427127 93.28198017349105 H 0.0 **** 0.06
11458 H 107.83261665105377 113.16946952784917 92.76021848456898 H 0.0 **** 0.06
11459 H 106.23869055421994 113.69715725462598 93.35234534698454 H 0.0 **** 0.06
11460 H 106.37602722465826 112.87812286119751 91.77752908319684 H 0.0 **** 0.06
11461 C 112.93168122647955 84.08156037954075 87.23638507191308 C 0.0 **** -0.24
11462 H 112.23271218049751 83.48501067974712 86.6507645490498 H 0.0 **** 0.06
11463 H 113.7427929759238 83.4457288585021 87.59221333261638 H 0.0 **** 0.06
11464 H 112.41221639100323 84.51830795092923 88.08926756393626 H 0.0 **** 0.06
11465 H 113.34070714092095 84.8775055029609 86.61327840208341 H 0.0 **** 0.06
11466 C 68.92120277856984 102.96072823723046 24.379409105474338 C 0.0 **** -0.24
11467 H 68.09272959627711 102.71105155060545 25.04209035015424 H 0.0 **** 0.06
11468 H 69.20754730562334 104.00178788618858 24.53096886903296 H 0.0 **** 0.06
11469 H 68.61464726620545 102.81533140039414 23.34299304635374 H 0.0 **** 0.06
11470 H 69.77068187482678 102.31369151196819 24.601069923124328 H 0.0 **** 0.06
11471 C 97.8577189686755 115.4959700074796 68.93559167798263 C 0.0 **** -0.24
11472 H 98.11111280416726 114.97798385109894 69.8608390177346 H 0.0 **** 0.06
11473 H 97.93731046702995 114.80314617383769 68.09776231202268 H 0.0 **** 0.06
11474 H 98.54585980570535 116.32865476336681 68.78672917689224 H 0.0 **** 0.06
11475 H 96.8379175604125 115.87491990888577 68.9982872617968 H 0.0 **** 0.06
11476 C 71.40621272366118 40.41563582884251 78.36192997227056 C 0.0 **** -0.24
11477 H 71.31402215508164 40.067120140660535 77.33346976436252 H 0.0 **** 0.06
11478 H 72.25143230371862 41.100845790969714 78.43793629605653 H 0.0 **** 0.06
11479 H 71.56716318707113 39.56346954944624 79.02145421898678 H 0.0 **** 0.06
11480 H 70.49173211087316 40.93327187472957 78.6523966075128 H 0.0 **** 0.06
11481 C 121.5557301913803 43.81880790082312 68.67853533790937 C 0.0 **** -0.24
11482 H 122.4299063644384 43.167404553841536 68.66929242086108 H 0.0 **** 0.06
11483 H 120.91000214745486 43.571265608532286 67.83562084139768 H 0.0 **** 0.06
11484 H 121.8763034308594 44.85715438485413 68.59829167769632 H 0.0 **** 0.06
11485 H 121.00767788743349 43.67858857598256 69.6103110227801 H 0.0 **** 0.06
11486 C 17.85537102176795 121.38521641020313 9.384034339220637 C 0.0 **** -0.24
11487 H 17.320787088455205 120.68331137790743 10.022459699171609 H 0.0 **** 0.06
11488 H 18.859723884578898 121.54337119812146 9.778530428903359 H 0.0 **** 0.06
11489 H 17.320445739504834 122.33479805446507 9.360235868806058 H 0.0 **** 0.06
11490 H 17.922086290500744 120.97956553578405 8.374178316733527 H 0.0 **** 0.06
11491 C 77.950673312243 111.92955487561022 91.2567401672065 C 0.0 **** -0.24
11492 H 76.94749520594638 112.2427741833759 91.54629512008859 H 0.0 **** 0.06
11493 H 78.47807094958085 111.54581638760612 92.13097085573249 H 0.0 **** 0.06
11494 H 78.49481858196106 112.78292571136114 90.8502651652245 H 0.0 **** 0.06
11495 H 77.882904884335 111.14791647296028 90.49984481582659 H 0.0 **** 0.06
11496 C 119.30173025548324 79.6618264803883 91.00730510814304 C 0.0 **** -0.24
11497 H 118.47672600283501 79.37479770646198 90.35505500915414 H 0.0 **** 0.06
11498 H 119.60786305612922 80.68262817627576 90.77748052650526 H 0.0 **** 0.06
11499 H 120.14187300651761 78.98560551576216 90.84768337311348 H 0.0 **** 0.06
11500 H 118.97959653877419 79.60270666073032 92.04659351090459 H 0.0 **** 0.06
11501 C 71.3722637591616 115.67176093531293 15.627018988002987 C 0.0 **** -0.24
11502 H 71.82172964280721 116.36754529472472 16.336053044009986 H 0.0 **** 0.06
11503 H 71.42360909752105 116.09344983209905 14.622844761935369 H 0.0 **** 0.06
11504 H 70.3300155818701 115.5013016062299 15.897009854722683 H 0.0 **** 0.06
11505 H 71.91392742625368 114.72715970446711 15.652525810871452 H 0.0 **** 0.06
11506 C 23.51438197452785 9.880272082679191 0.009328326510910756 C 0.0 **** -0.24
11507 H 23.800836107561622 9.369055646762103 0.9286245322567765 H 0.0 **** 0.06
11508 H 24.367053098491795 9.913373051566229 -0.6686605906149339 H 0.0 **** 0.06
11509 H 23.196533986242002 10.896992998306537 0.2429027421843557 H 0.0 **** 0.06
11510 H 22.693166499502126 9.342408641141173 -0.4639894826659088 H 0.0 **** 0.06
11511 C 66.82564473612763 108.17175667761552 85.85815797983642 C 0.0 **** -0.24
11512 H 66.09645622593334 108.59902113506995 86.5461833302314 H 0.0 **** 0.06
11513 H 67.73045518908307 108.77888113253951 85.86527178657235 H 0.0 **** 0.06
11514 H 66.40779756990511 108.15182524820284 84.85223197592065 H 0.0 **** 0.06
11515 H 67.06675066259723 107.15536189994431 86.17158957745194 H 0.0 **** 0.06
11516 C 111.60045227578246 49.48431863565668 91.25669311684631 C 0.0 **** -0.24
11517 H 112.51488776104122 48.94684661067393 91.511621297952 H 0.0 **** 0.06
11518 H 111.44315234384874 49.441059232989005 90.17914541848145 H 0.0 **** 0.06
11519 H 111.69196448478738 50.524719539230915 91.57004472529708 H 0.0 **** 0.06
11520 H 110.75451177693935 49.02420101849256 91.76753278584 H 0.0 **** 0.06
11521 C 94.76173802267517 49.050835856680266 51.56696227863961 C 0.0 **** -0.24
11522 H 93.95814826960311 49.130868352675435 52.29907225520202 H 0.0 **** 0.06
11523 H 95.72354865070754 49.1172926767201 52.075917617504274 H 0.0 **** 0.06
11524 H 94.67723390548446 49.86120753181041 50.84300682319423 H 0.0 **** 0.06
11525 H 94.68845104071214 48.09307423377487 51.05126815736753 H 0.0 **** 0.06
11526 C 35.57494051147634 23.28351341106955 42.53646764747657 C 0.0 **** -0.24
11527 H 35.34605400941277 24.228289601252328 43.03143706844145 H 0.0 **** 0.06
11528 H 35.99796320192459 22.587584303033054 43.26081989530633 H 0.0 **** 0.06
11529 H 36.29517777930721 23.459128760381134 41.7368813306492 H 0.0 **** 0.06
11530 H 34.661300267320996 22.862494842599972 42.11750876502157 H 0.0 **** 0.06
11531 C 91.37862378863952 37.846921320758355 99.77328193207772 C 0.0 **** -0.24
11532 H 91.94867408886381 38.12335158332175 98.88560815283721 H 0.0 **** 0.06
11533 H 91.99089729302125 37.21096739147956 100.41318700304879 H 0.0 **** 0.06
11534 H 90.48100083751905 37.305456675303645 99.47361075363662 H 0.0 **** 0.06
11535 H 91.096354044468 38.747683436191465 100.31788645403716 H 0.0 **** 0.06
11536 C 48.69834476008914 119.58757750745269 78.34440229713275 C 0.0 **** -0.24
11537 H 49.570057496689586 119.8942738443133 78.9224801204374 H 0.0 **** 0.06
11538 H 48.974188731203874 118.77098241413371 77.67603686854545 H 0.0 **** 0.06
11539 H 48.33660756789191 120.4311420841988 77.75680235187642 H 0.0 **** 0.06
11540 H 47.91203179610152 119.2532175830394 79.02176565143489 H 0.0 **** 0.06
11541 C 67.8289890560414 87.58017647072896 50.94299287707077 C 0.0 **** -0.24
11542 H 67.049925901866 88.02560729420426 50.32301160528783 H 0.0 **** 0.06
11543 H 68.00299249679432 86.55190389659796 50.622680316274085 H 0.0 **** 0.06
11544 H 67.51223447781837 87.58834641331347 51.98571502274203 H 0.0 **** 0.06
11545 H 68.74883050289316 88.15417009537865 50.837623705639395 H 0.0 **** 0.06
11546 C 4.687588912238681 44.93497182186659 98.19282858128693 C 0.0 **** -0.24
11547 H 4.662115096196686 45.5605784422429 99.08552460634027 H 0.0 **** 0.06
11548 H 5.410277974116411 44.13031745116285 98.3345807025434 H 0.0 **** 0.06
11549 H 4.980723357924063 45.5397213835013 97.3345349933675 H 0.0 **** 0.06
11550 H 3.699588051496619 44.50960994055454 98.01850921340011 H 0.0 **** 0.06
11551 C 52.43310532885906 114.51949181188692 101.78739564816335 C 0.0 **** -0.24
11552 H 52.15486593941078 113.71291431916006 102.46628322262352 H 0.0 **** 0.06
11553 H 51.53121526321652 114.99840701537903 101.404281668251 H 0.0 **** 0.06
11554 H 53.009651894247256 114.11310479583284 100.95629495151967 H 0.0 **** 0.06
11555 H 53.034712629490656 115.25381694085408 102.3228682961804 H 0.0 **** 0.06
11556 C 80.13175819931506 86.2994084418986 6.0455024175357295 C 0.0 **** -0.24
11557 H 81.08849891949762 86.81312037591044 5.957298716361215 H 0.0 **** 0.06
11558 H 79.53284772235594 86.49063026958638 5.155575390487467 H 0.0 **** 0.06
11559 H 79.6027720400996 86.666094584337 6.925540858876609 H 0.0 **** 0.06
11560 H 80.30356423948405 85.22709584009954 6.145852541933262 H 0.0 **** 0.06
11561 C 20.15977265495846 102.33774202091874 113.69342370059968 C 0.0 **** -0.24
11562 H 19.72233895831772 103.3364618152017 113.70496859562365 H 0.0 **** 0.06
11563 H 20.81832985799288 102.24004291728178 112.82896599041149 H 0.0 **** 0.06
11564 H 19.365885494402306 101.59413445481853 113.63178270484721 H 0.0 **** 0.06
11565 H 20.734200767034437 102.18246133023742 114.60715123392569 H 0.0 **** 0.06
11566 C 110.12575182459989 51.24873630467249 12.358265716515518 C 0.0 **** -0.24
11567 H 109.2707485210547 51.92405547209273 12.325676107917076 H 0.0 **** 0.06
11568 H 110.05917356539584 50.539945198650685 11.532989884133883 H 0.0 **** 0.06
11569 H 110.12583693812823 50.70793258593548 13.303700506340022 H 0.0 **** 0.06
11570 H 111.04646621443808 51.824898202679606 12.268498422749957 H 0.0 **** 0.06
11571 C 25.45406147290734 80.05898967830888 68.92171961350952 C 0.0 **** -0.24
11572 H 25.66777635459411 80.64773772350031 69.81432391890355 H 0.0 **** 0.06
11573 H 24.546966645748086 79.47461689628176 69.08088058842048 H 0.0 **** 0.06
11574 H 26.289334003304333 79.38703653919049 68.72244962292504 H 0.0 **** 0.06
11575 H 25.312409200856962 80.72549034167497 68.07116909392478 H 0.0 **** 0.06
11576 C 116.35231081494452 58.88537601564485 10.44762887142518 C 0.0 **** -0.24
11577 H 117.35739931376337 59.297792465070415 10.54486352016147 H 0.0 **** 0.06
11578 H 115.64610791906713 59.52125173106049 10.980490197136433 H 0.0 **** 0.06
11579 H 116.3302839652819 57.88081670073416 10.870467049263581 H 0.0 **** 0.06
11580 H 116.07919378926357 58.84164038008805 9.39296255909278 H 0.0 **** 0.06
11581 C 102.70482716754897 19.78981592293553 113.58251663384183 C 0.0 **** -0.24
11582 H 102.60225723625273 19.80404396288243 114.6680223822008 H 0.0 **** 0.06
11583 H 102.0938871889003 18.985276812482383 113.17085297144612 H 0.0 **** 0.06
11584 H 103.74974586399537 19.623974717984282 113.3181998170441 H 0.0 **** 0.06
11585 H 102.37381730495635 20.744734688270285 113.17355653698547 H 0.0 **** 0.06
11586 C 97.4976601633076 107.91909253752891 120.60251138588 C 0.0 **** -0.24
11587 H 96.70489953834026 108.24394501256941 119.9292045262834 H 0.0 **** 0.06
11588 H 98.40675264590202 107.73316056738443 120.0303978656454 H 0.0 **** 0.06
11589 H 97.19148143642121 107.00358275698872 121.10851249984148 H 0.0 **** 0.06
11590 H 97.68706070373045 108.6970006088849 121.34217899765258 H 0.0 **** 0.06
11591 C 63.89984399207029 96.6680774864733 27.13322197653926 C 0.0 **** -0.24
11592 H 63.76819202075029 95.96657005085795 26.30941812668408 H 0.0 **** 0.06
11593 H 64.7804466507975 97.28470216623138 26.947389303385535 H 0.0 **** 0.06
11594 H 64.03305078481645 96.11522660046735 28.062466556788166 H 0.0 **** 0.06
11595 H 63.01992282230532 97.30512710237768 27.211485173055365 H 0.0 **** 0.06
11596 C 82.12893994100739 18.78104375355511 34.039424502912865 C 0.0 **** -0.24
11597 H 81.44902111696712 19.587864017738838 33.766177085889154 H 0.0 **** 0.06
11598 H 83.09030072825774 19.20069421532466 34.33562651385752 H 0.0 **** 0.06
11599 H 82.26834379211067 18.118657109391876 33.18548763802937 H 0.0 **** 0.06
11600 H 81.70611557973916 18.21698260275906 34.87069839111098 H 0.0 **** 0.06
11601 C 24.42526084611501 107.09791832411948 33.99222087050399 C 0.0 **** -0.24
11602 H 24.961366862904356 107.55916893253377 33.16320284527658 H 0.0 **** 0.06
11603 H 24.694362094289204 107.59828863543356 34.922650769746404 H 0.0 **** 0.06
11604 H 24.693623792173582 106.04257527025982 34.05598738017525 H 0.0 **** 0.06
11605 H 23.352139257475784 107.19030374477956 33.82715222423728 H 0.0 **** 0.06
11606 C 70.44436973512205 93.5469235603166 100.0551159693295 C 0.0 **** -0.24
11607 H 69.43012660857568 93.78645833555099 100.37498890333374 H 0.0 **** 0.06
11608 H 71.12977762818474 93.67726021523897 100.89287316012171 H 0.0 **** 0.06
11609 H 70.73512951035065 94.20940531856444 99.23977469989254 H 0.0 **** 0.06
11610 H 70.48142138212046 92.51263987206768 99.71393404784547 H 0.0 **** 0.06
11611 C 14.059493380628084 113.58374080748047 86.27810821607437 C 0.0 **** -0.24
11612 H 13.572076127037974 113.6732513875724 87.24827568350383 H 0.0 **** 0.06
11613 H 15.012588355600172 114.11337339767829 86.29967353288265 H 0.0 **** 0.06
11614 H 13.420098401580645 114.01798294180566 85.50942587250722 H 0.0 **** 0.06
11615 H 14.2331705093153 112.53159229465058 86.0543730542974 H 0.0 **** 0.06
11616 C 89.31548226449527 33.301177081567204 70.06670072297709 C 0.0 **** -0.24
11617 H 88.75714277341032 33.33757406634046 69.1317061051837 H 0.0 **** 0.06
11618 H 89.13815967167687 34.21726547655122 70.6312443667519 H 0.0 **** 0.06
11619 H 90.38026867574393 33.20703597326214 69.85104332595915 H 0.0 **** 0.06
11620 H 88.98719359706539 32.44312883001627 70.65429711471083 H 0.0 **** 0.06
11621 C 45.18056285805443 100.14533461699993 115.06488073761062 C 0.0 **** -0.24
11622 H 44.84806766035683 101.16085081158818 114.85049908700317 H 0.0 **** 0.06
11623 H 46.22884755495372 100.16091743674698 115.3640213487962 H 0.0 **** 0.06
11624 H 45.065682762156754 99.53053468343958 114.17252807279921 H 0.0 **** 0.06
11625 H 44.57825977563148 99.72924292147341 115.87235296295839 H 0.0 **** 0.06
11626 C 97.68050677675843 77.97429646142052 94.84596326577237 C 0.0 **** -0.24
11627 H 98.50494920362166 77.84394298548 95.54837088878803 H 0.0 **** 0.06
11628 H 97.75259982941927 77.22361306194841 94.05920363809983 H 0.0 **** 0.06
11629 H 97.73410408080366 78.97021862061297 94.40590519684228 H 0.0 **** 0.06
11630 H 96.73343099908364 77.860769700287 95.37316800392416 H 0.0 **** 0.06
11631 C 57.24602489066643 70.12477459107458 70.0625084643437 C 0.0 **** -0.24
11632 H 57.80994727840965 69.97868297397989 69.14083361581974 H 0.0 **** 0.06
11633 H 56.22862636499315 70.43307343818282 69.82058533898963 H 0.0 **** 0.06
11634 H 57.72687620360696 70.89787391060312 70.66325904085055 H 0.0 **** 0.06
11635 H 57.21983307599902 69.19187324040914 70.62445302969714 H 0.0 **** 0.06
11636 C 9.864503913856897 56.71857887622082 28.657755922303352 C 0.0 **** -0.24
11637 H 9.106751116603736 56.22036617481024 28.05294230228634 H 0.0 **** 0.06
11638 H 10.523306859607494 55.97232388624553 29.10202035444003 H 0.0 **** 0.06
11639 H 9.380048452184358 57.292137782779946 29.448291070662286 H 0.0 **** 0.06
11640 H 10.447909227032046 57.38948766104784 28.027769961824916 H 0.0 **** 0.06
11641 C 41.21495935584721 92.44695107121873 120.69400077984113 C 0.0 **** -0.24
11642 H 40.93818378779676 92.78810206450886 121.69160791567757 H 0.0 **** 0.06
11643 H 41.15088212755887 91.35989148655949 120.65161860934265 H 0.0 **** 0.06
11644 H 42.23643407801899 92.75981480060541 120.47472138215781 H 0.0 **** 0.06
11645 H 40.53607573285825 92.88068919039219 119.96079351230694 H 0.0 **** 0.06
11646 C 108.94379084192511 52.129241663688106 30.944810059733072 C 0.0 **** -0.24
11647 H 108.44950941981301 51.31363573458515 30.417865562923026 H 0.0 **** 0.06
11648 H 109.75389363400504 51.73005361024883 31.55404236394844 H 0.0 **** 0.06
11649 H 108.22164508438121 52.63568935535574 31.58612356338371 H 0.0 **** 0.06
11650 H 109.3467458526591 52.8382749059669 30.221628321016937 H 0.0 **** 0.06
11651 C 60.93627657420292 27.018936867409934 75.79083568614197 C 0.0 **** -0.24
11652 H 60.31647286749542 26.43913080793959 75.10720495020992 H 0.0 **** 0.06
11653 H 60.33988399931761 27.81846479539047 76.23147470973655 H 0.0 **** 0.06
11654 H 61.77479077620818 27.450666132099116 75.24437664585072 H 0.0 **** 0.06
11655 H 61.313266074395 26.36862819719829 76.57982252137461 H 0.0 **** 0.06
11656 C 105.15493327168242 76.09059636135271 73.96330458432837 C 0.0 **** -0.24
11657 H 105.44168047343017 77.03653761137454 73.50359389833284 H 0.0 **** 0.06
11658 H 104.95061587940305 76.24970360414807 75.02211145868746 H 0.0 **** 0.06
11659 H 105.96741263932284 75.37225992209721 73.85315126885868 H 0.0 **** 0.06
11660 H 104.26016999493987 75.7059733005666 73.47309082827279 H 0.0 **** 0.06
11661 C 92.38551124693673 88.74589636250391 55.795644763455954 C 0.0 **** -0.24
11662 H 92.41818868233149 89.5187814929456 56.56446824308736 H 0.0 **** 0.06
11663 H 92.72436806269909 89.1627199067052 54.84759631598311 H 0.0 **** 0.06
11664 H 91.36362455875728 88.38270442178953 55.68947093463146 H 0.0 **** 0.06
11665 H 93.03695644050839 87.92081050237044 56.08382907141521 H 0.0 **** 0.06
11666 C 75.39156066622145 116.25375200520439 3.7168527667359967 C 0.0 **** -0.24
11667 H 76.23340328509937 116.01667988084527 4.3675066901216155 H 0.0 **** 0.06
11668 H 75.6883505591051 116.1204677119449 2.676081987613202 H 0.0 **** 0.06
11669 H 75.08800659054334 117.28782965558398 3.8791211449930074 H 0.0 **** 0.06
11670 H 74.55789634355926 115.59003177305019 3.944720979407009 H 0.0 **** 0.06
11671 C 106.67022261724676 111.31834532124563 120.03570642883481 C 0.0 **** -0.24
11672 H 107.04400866410845 110.58551464290133 120.75019425195572 H 0.0 **** 0.06
11673 H 107.4555340211505 112.04337465574139 119.8151359702124 H 0.0 **** 0.06
11674 H 105.80891188412821 111.8335640913586 120.4609394807791 H 0.0 **** 0.06
11675 H 106.37442673958631 110.81191996970028 119.11678538549234 H 0.0 **** 0.06
11676 C 60.932237516448225 51.48336723792397 63.04765742524708 C 0.0 **** -0.24
11677 H 60.38453902367719 50.81112214401389 62.38666526260181 H 0.0 **** 0.06
11678 H 60.654913755177816 51.281268932021135 64.08257991101752 H 0.0 **** 0.06
11679 H 60.68648093837885 52.51655528022772 62.800718321673585 H 0.0 **** 0.06
11680 H 62.00301634855927 51.32452259543308 62.920666205695355 H 0.0 **** 0.06
11681 C 28.638309121976448 90.69051549001045 93.85483088105579 C 0.0 **** -0.24
11682 H 27.8579321175622 91.20894393080596 93.29603172907306 H 0.0 **** 0.06
11683 H 28.20367774640863 90.22971990547092 94.74246467877069 H 0.0 **** 0.06
11684 H 29.405903836578204 91.40472192093097 94.15401689822701 H 0.0 **** 0.06
11685 H 29.084262607675527 89.92075025363414 93.2255585722097 H 0.0 **** 0.06
11686 C 20.43494523194846 46.23527803860557 79.78606962195536 C 0.0 **** -0.24
11687 H 20.34914769974776 46.93718712023184 78.95714738158807 H 0.0 **** 0.06
11688 H 20.156156197187528 45.23667317498388 79.44782300455515 H 0.0 **** 0.06
11689 H 19.770031484287387 46.54442912942943 80.59387413575328 H 0.0 **** 0.06
11690 H 21.46343287546233 46.22427055480102 80.14680457456481 H 0.0 **** 0.06
11691 C 120.50223138185252 98.65439400429072 9.631852580399709 C 0.0 **** -0.24
11692 H 120.7113287997242 99.53523413510018 10.240549342883583 H 0.0 **** 0.06
11693 H 119.4270279694074 98.56925630147235 9.475347358361944 H 0.0 **** 0.06
11694 H 120.86821905852281 97.76472813484486 10.144482442778155 H 0.0 **** 0.06
11695 H 121.00380058155297 98.75159068119038 8.669138792855563 H 0.0 **** 0.06
11696 C 18.001161124247062 1.3245930211776056 58.46313545712654 C 0.0 **** -0.24
11697 H 17.499427119705956 1.1054292210885706 59.40639364009276 H 0.0 **** 0.06
11698 H 18.725464575901754 0.5382958753018272 58.24642341617148 H 0.0 **** 0.06
11699 H 18.51476963449636 2.2825286503266824 58.53889353175174 H 0.0 **** 0.06
11700 H 17.263674478390328 1.3693615227422526 57.66166060189083 H 0.0 **** 0.06
11701 C 121.59691409289661 88.12348359190216 45.15172891974589 C 0.0 **** -0.24
11702 H 121.39554556719865 89.1880711619136 45.26382103215815 H 0.0 **** 0.06
11703 H 121.43945426642884 87.62130788982475 46.10741913793788 H 0.0 **** 0.06
11704 H 122.62947956598444 87.980619062392 44.8327838004231 H 0.0 **** 0.06
11705 H 120.92396117685054 87.70233009159826 44.405083898172336 H 0.0 **** 0.06
11706 C 93.70157205734654 34.02339314540805 20.42521644573256 C 0.0 **** -0.24
11707 H 93.1790488283926 34.91490171132952 20.079548083887488 H 0.0 **** 0.06
11708 H 93.9755466592106 33.40735712195692 19.56862304522528 H 0.0 **** 0.06
11709 H 93.0491240724633 33.45423691186613 21.08825307908009 H 0.0 **** 0.06
11710 H 94.60104600961489 34.31675382842019 20.96520139977514 H 0.0 **** 0.06
11711 C 88.6858569295996 52.69200345700932 77.40039624801 C 0.0 **** -0.24
11712 H 89.08074622252155 51.836583639237745 77.9499680585617 H 0.0 **** 0.06
11713 H 87.8512478960514 53.12435614402216 77.95325760382408 H 0.0 **** 0.06
11714 H 88.3429070354876 52.36556812871203 76.4188061952301 H 0.0 **** 0.06
11715 H 89.47036187295475 53.44049894437404 77.28170211858117 H 0.0 **** 0.06
11716 C 106.69221211702688 85.07188894334107 31.19387064630729 C 0.0 **** -0.24
11717 H 106.38344309318268 84.70748191107364 32.174017548676204 H 0.0 **** 0.06
11718 H 106.7814894697911 86.15846432305392 31.222927115243465 H 0.0 **** 0.06
11719 H 105.94773627331426 84.78716185234215 30.450627154179216 H 0.0 **** 0.06
11720 H 107.65528377127555 84.63415433740508 30.93092936220043 H 0.0 **** 0.06
11721 C 70.26756066462542 30.741174005765288 110.70402410252399 C 0.0 **** -0.24
11722 H 70.01439744139537 29.744359920241067 110.34302165696204 H 0.0 **** 0.06
11723 H 71.33228243400582 30.922902226237568 110.55359744861218 H 0.0 **** 0.06
11724 H 70.03279400796396 30.814368842651675 111.76546264874685 H 0.0 **** 0.06
11725 H 69.69014010230683 31.484278869234117 110.15198199838323 H 0.0 **** 0.06
11726 C 12.461492122557718 107.86000944451224 39.55730725098471 C 0.0 **** -0.24
11727 H 11.746581538930116 107.14993565097004 39.974117546072364 H 0.0 **** 0.06
11728 H 13.466536468211466 107.60373437375603 39.896640141345586 H 0.0 **** 0.06
11729 H 12.210799184301631 108.866621735987 39.890770007641095 H 0.0 **** 0.06
11730 H 12.42390913144915 107.81694871612184 38.4693518586223 H 0.0 **** 0.06
11731 C 110.09209149741605 5.024805353449295 103.54885396999688 C 0.0 **** -0.24
11732 H 109.06178895771433 5.02691769967106 103.904022801259 H 0.0 **** 0.06
11733 H 110.26505799207223 5.9063055316754 102.93188986416095 H 0.0 **** 0.06
11734 H 110.27072852582916 4.1264200904738 102.9578045207007 H 0.0 **** 0.06
11735 H 110.7711224614593 5.038710855032406 104.40206986043614 H 0.0 **** 0.06
11736 C 64.11668655251336 108.98986665723794 54.439615760240514 C 0.0 **** -0.24
11737 H 64.43400538350474 109.17404605230786 53.41269829793529 H 0.0 **** 0.06
11738 H 64.31748995298287 109.8739226772799 55.045111157632874 H 0.0 **** 0.06
11739 H 64.6668780171801 108.13935079893446 54.8422282767614 H 0.0 **** 0.06
11740 H 63.04868739338545 108.77222899641686 54.455279693309365 H 0.0 **** 0.06
11741 C 101.41419242938912 118.16245644541377 46.62771274275019 C 0.0 **** -0.24
11742 H 102.20649188361591 118.14681620618924 47.376077400571376 H 0.0 **** 0.06
11743 H 101.40320481431006 117.21313016389055 46.090552909924554 H 0.0 **** 0.06
11744 H 101.59582437346339 118.97554641513145 45.92408762692486 H 0.0 **** 0.06
11745 H 100.45317353599717 118.31353672587906 47.11884420695344 H 0.0 **** 0.06
11746 C 49.40104435473347 66.33334839732049 62.10057700160911 C 0.0 **** -0.24
11747 H 50.42224326105989 66.08356900008648 62.38834731039577 H 0.0 **** 0.06
11748 H 49.11111176656456 65.73591341503645 61.236980931200364 H 0.0 **** 0.06
11749 H 49.3439692482678 67.39169082845204 61.84646791509722 H 0.0 **** 0.06
11750 H 48.72734723683263 66.12298834139733 62.93091941270666 H 0.0 **** 0.06
11751 C 31.344107172857946 5.355643841103898 33.76709058954489 C 0.0 **** -0.24
11752 H 31.576819731761304 6.372709600997183 34.08299378126668 H 0.0 **** 0.06
11753 H 30.314983076488772 5.119058207750214 34.03611940623949 H 0.0 **** 0.06
11754 H 32.01994473971848 4.658527132128114 34.26354163724562 H 0.0 **** 0.06
11755 H 31.465980375964534 5.273844340518963 32.68767389747916 H 0.0 **** 0.06
11756 C 22.58713820362817 3.132041659526749 53.37231626209109 C 0.0 **** -0.24
11757 H 23.524972631667367 2.5799715980516567 53.31001100606716 H 0.0 **** 0.06
11758 H 21.854144013910428 2.5426772546178427 53.92383494784593 H 0.0 **** 0.06
11759 H 22.21362509380964 3.327701521183542 52.36702083333023 H 0.0 **** 0.06
11760 H 22.755723739772975 4.0774462248026 53.88747333033206 H 0.0 **** 0.06
11761 C 24.790122304122946 70.64695305129439 117.63057307973283 C 0.0 **** -0.24
11762 H 24.6010054421102 69.73281296202546 118.19335138297293 H 0.0 **** 0.06
11763 H 25.845853001080357 70.90700193050418 117.7026837234077 H 0.0 **** 0.06
11764 H 24.186240064236614 71.45681519192631 118.04092817668163 H 0.0 **** 0.06
11765 H 24.5255207594951 70.49009207526905 116.58476746874165 H 0.0 **** 0.06
11766 C 49.6513507564236 116.919735735406 23.95776545713437 C 0.0 **** -0.24
11767 H 49.81028709705282 117.17111622678203 25.006389218654903 H 0.0 **** 0.06
11768 H 49.08107903926111 117.71377641558036 23.476401522677833 H 0.0 **** 0.06
11769 H 49.09962748880059 115.9825074282206 23.888850920699355 H 0.0 **** 0.06
11770 H 50.615579249848906 116.81093108564403 23.45992739284796 H 0.0 **** 0.06
11771 C 111.05556033535424 110.03158749458566 118.74930370166533 C 0.0 **** -0.24
11772 H 111.43457136693974 109.45647012961679 117.90483266522197 H 0.0 **** 0.06
11773 H 111.69895296673768 110.89493923504253 118.91899283623682 H 0.0 **** 0.06
11774 H 111.04541350800339 109.40445837038 119.64005099580501 H 0.0 **** 0.06
11775 H 110.04263860571605 110.37051466340982 118.53120356515112 H 0.0 **** 0.06
11776 C 51.6323470850897 35.691910124236244 85.07965647900136 C 0.0 **** -0.24
11777 H 52.32136445250808 36.50707715523632 85.29936641167473 H 0.0 **** 0.06
11778 H 51.50352945084825 35.60669696502083 84.00037594373481 H 0.0 **** 0.06
11779 H 50.66832255214364 35.894058946893836 85.54655075563159 H 0.0 **** 0.06
11780 H 52.03712402149442 34.758769460111694 85.4722056750553 H 0.0 **** 0.06
11781 C 27.42927055765545 123.78237797178471 62.77850374752302 C 0.0 **** -0.24
11782 H 27.40936687685693 124.226832393309 63.772671098295916 H 0.0 **** 0.06
11783 H 27.077442957338732 124.51056524754563 62.0470494497427 H 0.0 **** 0.06
11784 H 26.782031223727422 122.9059377889089 62.759306828075694 H 0.0 **** 0.06
11785 H 28.449442215793248 123.48548918284804 62.533945831812446 H 0.0 **** 0.06
11786 C 120.53977079794069 55.31180017211062 4.244238975817847 C 0.0 **** -0.24
11787 H 120.03170211717861 55.58900541725478 5.1676934444179 H 0.0 **** 0.06
11788 H 121.49150354663033 54.83626781178057 4.482961618176063 H 0.0 **** 0.06
11789 H 120.71932647595978 56.20408528617597 3.645515604494447 H 0.0 **** 0.06
11790 H 119.91720210787926 54.61572396761858 3.681829100618529 H 0.0 **** 0.06
11791 C 107.8160983831228 121.56651333841799 94.6530115191444 C 0.0 **** -0.24
11792 H 107.52567985314373 120.59711021693548 95.0585116976049 H 0.0 **** 0.06
11793 H 108.8761097985157 121.73565456521212 94.84195792067956 H 0.0 **** 0.06
11794 H 107.23031243492966 122.3509210466149 95.13264377196538 H 0.0 **** 0.06
11795 H 107.63060724045859 121.5813587505861 93.57855053336965 H 0.0 **** 0.06
11796 C 90.2348456367163 110.35344233209389 69.15270753639204 C 0.0 **** -0.24
11797 H 90.78102273878099 110.8981187848824 69.92349083597168 H 0.0 **** 0.06
11798 H 89.2130995133198 110.1750388431384 69.4886194144077 H 0.0 **** 0.06
11799 H 90.72860954315692 109.39949617879972 68.96448769279785 H 0.0 **** 0.06
11800 H 90.21926190352943 110.94196941277676 68.23490539212175 H 0.0 **** 0.06
11801 C 58.44607674709353 1.9459549140609056 13.87428538890191 C 0.0 **** -0.24
11802 H 58.23926744804544 2.8316103064274216 14.474576247412557 H 0.0 **** 0.06
11803 H 57.50719218935804 1.454349410721477 13.618745678325695 H 0.0 **** 0.06
11804 H 59.07233504581191 1.2593972612256437 14.44333002735624 H 0.0 **** 0.06
11805 H 58.96382601133007 2.238361747356606 12.960872208089569 H 0.0 **** 0.06
11806 C 58.15421349049606 9.727891448835237 72.96845155996563 C 0.0 **** -0.24
11807 H 58.4781317224774 10.562411477337747 73.58990387386004 H 0.0 **** 0.06
11808 H 57.416049229994485 10.077063306775429 72.24694119502317 H 0.0 **** 0.06
11809 H 57.711909140110635 8.955996394952393 73.59887017987475 H 0.0 **** 0.06
11810 H 59.013734363021484 9.315310081699522 72.43884013020357 H 0.0 **** 0.06
11811 C 108.59728486317526 46.18728607736446 12.605773550860192 C 0.0 **** -0.24
11812 H 109.05759085394045 46.79312500232075 13.38577179250268 H 0.0 **** 0.06
11813 H 107.53064819407736 46.41032100624312 12.554553927312782 H 0.0 **** 0.06
11814 H 108.7372681321998 45.13134072317132 12.836569540065398 H 0.0 **** 0.06
11815 H 109.06231521843273 46.41471335034248 11.646571638766545 H 0.0 **** 0.06
11816 C 88.63488628376203 14.18075808865943 21.277605138271937 C 0.0 **** -0.24
11817 H 89.24935541608266 14.074637962299885 22.171221875349538 H 0.0 **** 0.06
11818 H 87.5987040161438 13.938823625142405 21.517650599003545 H 0.0 **** 0.06
11819 H 88.99666858255871 13.502990699476772 20.505150881239544 H 0.0 **** 0.06
11820 H 88.69372925662623 15.207927860843185 20.916384264063737 H 0.0 **** 0.06
11821 C 22.3395668183868 8.497371157640174 33.55118827034795 C 0.0 **** -0.24
11822 H 22.605270897419246 7.904662988474769 34.426484261747476 H 0.0 **** 0.06
11823 H 21.417005964591965 8.111017762103046 33.11730434481149 H 0.0 **** 0.06
11824 H 23.140917464782547 8.438143446670722 32.815031425800214 H 0.0 **** 0.06
11825 H 22.194156521257355 9.536680425350767 33.84769941498294 H 0.0 **** 0.06
11826 C 113.16139284975591 86.05277267330673 56.57707788689822 C 0.0 **** -0.24
11827 H 113.20447890387504 85.05445582918911 56.14126394133672 H 0.0 **** 0.06
11828 H 113.88582015828119 86.69770660121485 56.08052782179351 H 0.0 **** 0.06
11829 H 113.39414620407949 85.99485216405218 57.64004673016581 H 0.0 **** 0.06
11830 H 112.159416448877 86.46268111865486 56.44683537945377 H 0.0 **** 0.06
11831 C 34.54060375801291 89.22975725852208 79.47903775670403 C 0.0 **** -0.24
11832 H 34.24229283828035 88.82030439399585 80.4443188921191 H 0.0 **** 0.06
11833 H 34.92643305430872 90.24072946078061 79.617517989475 H 0.0 **** 0.06
11834 H 33.677438831301686 89.25783418939994 78.81414175506364 H 0.0 **** 0.06
11835 H 35.316409241990556 88.60129414960909 79.04181278755908 H 0.0 **** 0.06
11836 C 0.727248668910164 32.09465895135881 34.00539932274671 C 0.0 **** -0.24
11837 H 0.79819636856746 31.03810772180435 34.26488084512732 H 0.0 **** 0.06
11838 H -0.3185669298722189 32.36218921056343 33.8521836674455 H 0.0 **** 0.06
11839 H 1.288524532694609 32.2827191142332 33.090427487975376 H 0.0 **** 0.06
11840 H 1.1417150753422618 32.69458925403933 34.81588680753964 H 0.0 **** 0.06
11841 C 8.65022004862534 100.22718808702155 27.80225038958342 C 0.0 **** -0.24
11842 H 8.510367908806945 100.755562495665 26.858276521989907 H 0.0 **** 0.06
11843 H 7.818044341337064 99.54141377469409 27.960332251947086 H 0.0 **** 0.06
11844 H 8.688049497251278 100.94777175357166 28.619081955918986 H 0.0 **** 0.06
11845 H 9.582967278963864 99.665230462817 27.768592136721317 H 0.0 **** 0.06
11846 C 10.084870627068796 91.95834390150961 98.16407013742811 C 0.0 **** -0.24
11847 H 11.07350672706852 92.37261070944457 97.96628898951289 H 0.0 **** 0.06
11848 H 10.174312085040867 90.89251865189655 98.37777215666614 H 0.0 **** 0.06
11849 H 9.449584073376315 92.10256573750664 97.29028769762436 H 0.0 **** 0.06
11850 H 9.644188544248465 92.46572850244766 99.02267360539985 H 0.0 **** 0.06
11851 C 114.60600757963755 102.27347540447224 95.54997801153533 C 0.0 **** -0.24
11852 H 114.74791855094662 102.64992907226494 94.5370250955367 H 0.0 **** 0.06
11853 H 115.57024836292078 101.97975408684775 95.96611292401491 H 0.0 **** 0.06
11854 H 113.94185856000183 101.40897946027431 95.52679188297168 H 0.0 **** 0.06
11855 H 114.16511039172619 103.05341514647279 96.16931013348088 H 0.0 **** 0.06
11856 C 109.23122793617968 90.41658689799851 59.221776392938665 C 0.0 **** -0.24
11857 H 108.72364459930286 91.37681354293456 59.314559275626664 H 0.0 **** 0.06
11858 H 108.82755802046437 89.72040828626324 59.95709445862754 H 0.0 **** 0.06
11859 H 110.29875067520815 90.5518391117705 59.39697848692413 H 0.0 **** 0.06
11860 H 109.07443983405672 90.01909292172797 58.21968524662768 H 0.0 **** 0.06
11861 C 99.12041503686294 69.13145556782743 63.974748671461185 C 0.0 **** -0.24
11862 H 98.25362487954288 69.09225690683473 63.315670565867066 H 0.0 **** 0.06
11863 H 100.03195411524797 69.05979070559299 63.380854406569114 H 0.0 **** 0.06
11864 H 99.07973975649139 68.30133230741095 64.67957245848646 H 0.0 **** 0.06
11865 H 99.11726096905869 70.07423740181108 64.52193162140034 H 0.0 **** 0.06
11866 C 15.007203544108982 89.38628549880386 82.95866822401095 C 0.0 **** -0.24
11867 H 13.982397754757589 89.60527773045487 82.65640297425695 H 0.0 **** 0.06
11868 H 15.691171716137934 89.68134159056119 82.16323996122247 H 0.0 **** 0.06
11869 H 15.109226970412557 88.3173214645322 83.147744559603 H 0.0 **** 0.06
11870 H 15.242833745255496 89.94027372162006 83.86723476227253 H 0.0 **** 0.06
11871 C 39.92252520777835 63.50917122596887 62.46241477314172 C 0.0 **** -0.24
11872 H 40.821673711713565 63.673446949345916 61.8669458273327 H 0.0 **** 0.06
11873 H 39.37498499582088 62.65438379760798 62.06480956723556 H 0.0 **** 0.06
11874 H 39.29207594885091 64.3971676426405 62.41894303784497 H 0.0 **** 0.06
11875 H 40.20366853835859 63.312379291812036 63.49690646511823 H 0.0 **** 0.06
11876 C 53.234488699695504 111.8525474391383 16.78080375638268 C 0.0 **** -0.24
11877 H 52.52625140311406 112.4058649911884 17.396960626215844 H 0.0 **** 0.06
11878 H 53.772259357410206 111.13427122941897 17.40003209709812 H 0.0 **** 0.06
11879 H 53.944854253293585 112.54772243789371 16.330872286431998 H 0.0 **** 0.06
11880 H 52.6962075300909 111.32356249736284 15.994418981649346 H 0.0 **** 0.06
11881 C 115.78174998013411 53.8895795204987 91.79397757126931 C 0.0 **** -0.24
11882 H 115.29141229507377 53.627228915989946 90.85694780755573 H 0.0 **** 0.06
11883 H 116.74927178511403 53.39051672214218 91.85007211922922 H 0.0 **** 0.06
11884 H 115.16053898597156 53.57122695502085 92.63142206294559 H 0.0 **** 0.06
11885 H 115.92688847310019 54.968767457412085 91.83866426539315 H 0.0 **** 0.06
11886 C 103.51367906694925 118.03059204778276 120.72114705380577 C 0.0 **** -0.24
11887 H 104.29350032146216 118.72560958515129 121.03370293927387 H 0.0 **** 0.06
11888 H 103.04761558268964 117.58734828893137 121.60132290063933 H 0.0 **** 0.06
11889 H 103.95294598905262 117.24431445361711 120.10702586424077 H 0.0 **** 0.06
11890 H 102.76198698028534 118.56685850705298 120.14219370259596 H 0.0 **** 0.06
11891 C 120.40588768481567 84.37992939797476 83.85527324404741 C 0.0 **** -0.24
11892 H 119.6313029241364 83.62099931669165 83.96800885296153 H 0.0 **** 0.06
11893 H 120.9031678264976 84.25136747590012 82.89455531987751 H 0.0 **** 0.06
11894 H 121.13470454834328 84.27765352395555 84.65950850166345 H 0.0 **** 0.06
11895 H 119.9529989240325 85.37021646793312 83.90070431777617 H 0.0 **** 0.06
11896 C 106.55125594644952 17.23361192951234 16.91447485208559 C 0.0 **** -0.24
11897 H 105.8272292883228 18.04582291996566 16.85668760293629 H 0.0 **** 0.06
11898 H 107.4787290638181 17.604183685820885 17.352467962645648 H 0.0 **** 0.06
11899 H 106.74958648639404 16.85051126859602 15.912871810789426 H 0.0 **** 0.06
11900 H 106.15082810301357 16.43289708455187 17.536208704277954 H 0.0 **** 0.06
11901 C 55.81820917019158 12.401225010084403 91.60634502374609 C 0.0 **** -0.24
11902 H 56.37586730846128 13.058991221058449 90.93836462539167 H 0.0 **** 0.06
11903 H 55.72578989031989 11.41562216076889 91.1498010253867 H 0.0 **** 0.06
11904 H 54.825460543498124 12.817768162210882 91.77914177529038 H 0.0 **** 0.06
11905 H 56.34636976962294 12.315176487985951 92.5559484884829 H 0.0 **** 0.06
11906 C 37.232847768203726 77.13210621247794 72.40874678910026 C 0.0 **** -0.24
11907 H 38.167593393388216 77.63351643002824 72.65885895667668 H 0.0 **** 0.06
11908 H 36.49008897259341 77.87415784269018 72.11510673560811 H 0.0 **** 0.06
11909 H 36.87286011636961 76.58137306877427 73.27690087732482 H 0.0 **** 0.06
11910 H 37.40179449271331 76.44034195614415 71.58370199777288 H 0.0 **** 0.06
11911 C 52.729623543545245 57.92817002567875 61.44266001146005 C 0.0 **** -0.24
11912 H 51.78405768777151 57.387594775660034 61.40192536120587 H 0.0 **** 0.06
11913 H 52.53975278648363 58.99893588949499 61.3574992171726 H 0.0 **** 0.06
11914 H 53.36685812679593 57.60571693349965 60.61972577873156 H 0.0 **** 0.06
11915 H 53.22631139889924 57.72101768390411 62.3899517976201 H 0.0 **** 0.06
11916 C 54.5581937081044 61.43757794444386 87.40972092213428 C 0.0 **** -0.24
11917 H 54.617656083183874 61.3021916606838 88.48987716731887 H 0.0 **** 0.06
11918 H 54.91641957444307 62.432637225986326 87.1477802661977 H 0.0 **** 0.06
11919 H 53.52305002277052 61.32696773434506 87.08597308158939 H 0.0 **** 0.06
11920 H 55.17512916177111 60.687209186617025 86.915097740576 H 0.0 **** 0.06
11921 C 65.73403721725504 91.96075995885943 115.77081954587473 C 0.0 **** -0.24
11922 H 66.5220042905251 91.38376253576425 115.28671359029082 H 0.0 **** 0.06
11923 H 65.84931323346211 91.89608813278736 116.85293678565688 H 0.0 **** 0.06
11924 H 64.76219071404466 91.55801455558654 115.48464084745731 H 0.0 **** 0.06
11925 H 65.80301994619253 93.00297154618485 115.45893318096198 H 0.0 **** 0.06
11926 C 63.55009981917691 25.282644003690194 26.167793546883942 C 0.0 **** -0.24
11927 H 64.50315841567264 25.635575974682382 25.77272888328404 H 0.0 **** 0.06
11928 H 63.16983665512886 26.000867940419965 26.894693160852427 H 0.0 **** 0.06
11929 H 63.692041317818976 24.315916016839083 26.650260420713515 H 0.0 **** 0.06
11930 H 62.83495433803819 25.180425798844 25.350855269494602 H 0.0 **** 0.06
11931 C 40.694995441972026 34.904164828919164 18.010129491628447 C 0.0 **** -0.24
11932 H 41.10008468237291 34.62759833614493 17.036473281386918 H 0.0 **** 0.06
11933 H 41.2574322103751 34.395809331362074 18.793961956566307 H 0.0 **** 0.06
11934 H 39.647560097111324 34.610523699392985 18.064163684141988 H 0.0 **** 0.06
11935 H 40.7782400336055 35.98267264980208 18.144550209377087 H 0.0 **** 0.06
11936 C 101.0108805827544 43.62275505913577 42.79019436379115 C 0.0 **** -0.24
11937 H 101.45966733731777 42.94076407326779 43.51260108216616 H 0.0 **** 0.06
11938 H 101.19967192486789 43.257411367685094 41.78049809745246 H 0.0 **** 0.06
11939 H 101.44809086814445 44.61416286119575 42.90605811713203 H 0.0 **** 0.06
11940 H 99.93541464084205 43.67761703437317 42.962258130081004 H 0.0 **** 0.06
11941 C 23.63954952564356 22.528500855930133 79.066699148979 C 0.0 **** -0.24
11942 H 24.04317192501921 22.49425681967449 78.05473076258797 H 0.0 **** 0.06
11943 H 23.969989377249945 23.444433124044203 79.55797032163427 H 0.0 **** 0.06
11944 H 23.995940653684954 21.66567242815782 79.62874375263539 H 0.0 **** 0.06
11945 H 22.55140144756858 22.511176621927632 79.02419932915998 H 0.0 **** 0.06
11946 C 20.23491405191092 94.36098488983066 120.4719069271381 C 0.0 **** -0.24
11947 H 20.797166136639134 95.17310665282147 120.93337368666846 H 0.0 **** 0.06
11948 H 19.16721411281398 94.55818188381622 120.57079030248144 H 0.0 **** 0.06
11949 H 20.480127656934684 93.4224421220955 120.96836078560689 H 0.0 **** 0.06
11950 H 20.496982728588875 94.29266985295484 119.41586393711512 H 0.0 **** 0.06
11951 C 32.08522225875018 111.25638123533301 122.76037422015264 C 0.0 **** -0.24
11952 H 32.03639146258067 111.40811478039784 123.83889784970557 H 0.0 **** 0.06
11953 H 32.925672887941474 111.82016128719718 122.3528480038288 H 0.0 **** 0.06
11954 H 31.158809897566357 111.60265039779414 122.30270568896246 H 0.0 **** 0.06
11955 H 32.221813881828396 110.19648098663636 122.54883975924862 H 0.0 **** 0.06
11956 C 58.22084304404035 49.911210064758336 34.860345528101085 C 0.0 **** -0.24
11957 H 58.646538923246965 50.570848152170356 35.616796678896804 H 0.0 **** 0.06
11958 H 58.25052476072386 50.4045291226289 33.88932752762048 H 0.0 **** 0.06
11959 H 57.187073960857276 49.681212234968115 35.11962380633223 H 0.0 **** 0.06
11960 H 58.79868402551625 48.98773766079563 34.8177397946147 H 0.0 **** 0.06
11961 C 113.12651772909487 50.085887143501495 56.84339134563743 C 0.0 **** -0.24
11962 H 113.31866088742066 49.02295191490553 56.9904540137195 H 0.0 **** 0.06
11963 H 114.00206857324656 50.55340020302265 56.39241907523416 H 0.0 **** 0.06
11964 H 112.92040194451079 50.55398620732916 57.80618845946384 H 0.0 **** 0.06
11965 H 112.26742175481206 50.21210466187266 56.185775300581554 H 0.0 **** 0.06
11966 C 115.92708447803267 121.43254708229193 114.1446480819483 C 0.0 **** -0.24
11967 H 115.60236094844359 122.43149654520701 113.8520316889612 H 0.0 **** 0.06
11968 H 115.52469193313894 121.1944510581946 115.12885343934806 H 0.0 **** 0.06
11969 H 117.01576316120415 121.40031639181478 114.1787739976532 H 0.0 **** 0.06
11970 H 115.56486059909909 120.70530794978015 113.41730575075002 H 0.0 **** 0.06
11971 C 12.056461753410304 53.83977488697978 120.73971879021641 C 0.0 **** -0.24
11972 H 12.772963441491925 54.55614727980705 121.14245526501799 H 0.0 **** 0.06
11973 H 11.663304016131804 53.22588515718208 121.54957004625764 H 0.0 **** 0.06
11974 H 12.553851335662785 53.20219174552021 120.0081443905327 H 0.0 **** 0.06
11975 H 11.239104116802935 54.376141658328976 120.25872831778267 H 0.0 **** 0.06
11976 C 118.50451296913646 45.66575137502676 93.5249383751279 C 0.0 **** -0.24
11977 H 119.30104281035389 44.93776672526073 93.37075901962966 H 0.0 **** 0.06
11978 H 118.87803198789987 46.488740600975945 94.13529077413335 H 0.0 **** 0.06
11979 H 117.66851473611524 45.18685602330115 94.03441741049066 H 0.0 **** 0.06
11980 H 118.17100854893292 46.05010960812835 92.5605041833041 H 0.0 **** 0.06
11981 C 64.59827859263251 1.3468908533830302 79.97393462997624 C 0.0 **** -0.24
11982 H 64.87538795298367 0.8952225832902059 79.02076573161415 H 0.0 **** 0.06
11983 H 65.12742151412041 2.2920605530389935 80.09545300174781 H 0.0 **** 0.06
11984 H 64.86814316812315 0.6722895096160926 80.7867383391723 H 0.0 **** 0.06
11985 H 63.52374501663752 1.5261605176748674 79.99316056109737 H 0.0 **** 0.06
11986 C 113.2125913218307 52.6689337223487 64.73545527557316 C 0.0 **** -0.24
11987 H 112.27367529803973 52.64109174502664 64.18187577050301 H 0.0 **** 0.06
11988 H 113.02879980104132 53.03974788503808 65.7438774321175 H 0.0 **** 0.06
11989 H 113.91446961969268 53.329747127476026 64.22777412652235 H 0.0 **** 0.06
11990 H 113.63250416177607 51.66375789664619 64.78877085340082 H 0.0 **** 0.06
11991 C 83.7347525725886 23.236084095814817 39.38673930690373 C 0.0 **** -0.24
11992 H 83.49552351785945 22.949296889193477 40.41044201242269 H 0.0 **** 0.06
11993 H 82.88994223345455 23.00414233700215 38.73837890854703 H 0.0 **** 0.06
11994 H 84.61375838043907 22.68571576625328 39.05066309506576 H 0.0 **** 0.06
11995 H 83.9394408408712 24.306751784675072 39.34902720221431 H 0.0 **** 0.06
11996 C 59.01254914135757 17.89073028842111 35.12842827557091 C 0.0 **** -0.24
11997 H 59.39182508435566 17.853647558109714 36.15009132495794 H 0.0 **** 0.06
11998 H 57.93954735495137 18.080666269144984 35.146980308014804 H 0.0 **** 0.06
11999 H 59.2057963031657 16.93867422823402 34.63424764800391 H 0.0 **** 0.06
12000 H 59.51484850154628 18.69061770208262 34.58349686940801 H 0.0 **** 0.06
12001 C 119.80953904005918 73.81359508984593 76.28329331409998 C 0.0 **** -0.24
12002 H 120.59363528448833 74.43964238846632 76.70821274567308 H 0.0 **** 0.06
12003 H 120.22891816244626 73.19708208222346 75.48714592687648 H 0.0 **** 0.06
12004 H 119.019889549857 74.44534548297122 75.87747834440593 H 0.0 **** 0.06
12005 H 119.39682542614693 73.17055985355069 77.06163960451958 H 0.0 **** 0.06
12006 C 7.527140333416185 11.96975911219198 104.67775715224974 C 0.0 **** -0.24
12007 H 8.567424695779522 12.250824994007615 104.513964240245 H 0.0 **** 0.06
12008 H 7.3829310900129315 10.929765027036979 104.38307806589182 H 0.0 **** 0.06
12009 H 6.879077386153199 12.609783534914243 104.08021319130447 H 0.0 **** 0.06
12010 H 7.2810206317813595 12.086393783556787 105.73325332037098 H 0.0 **** 0.06
12011 C 30.581517829093002 0.9529530952355287 49.71502291132836 C 0.0 **** -0.24
12012 H 29.578329376144282 1.136243807570338 50.09937187839843 H 0.0 **** 0.06
12013 H 31.287573518511365 1.6195279209420619 50.209520669342105 H 0.0 **** 0.06
12014 H 30.597403420392475 1.138846062571588 48.64058947018466 H 0.0 **** 0.06
12015 H 30.861402395233625 -0.08221362057727788 49.90893829322866 H 0.0 **** 0.06
12016 C 55.955806836278555 19.74572463537416 73.40596642725177 C 0.0 **** -0.24
12017 H 55.81070130367095 20.36565379301868 74.29076015332055 H 0.0 **** 0.06
12018 H 56.41115888680477 20.342266055164913 72.6151961861172 H 0.0 **** 0.06
12019 H 54.991797181694835 19.36719743894207 73.06597045750704 H 0.0 **** 0.06
12020 H 56.60826171440851 18.908913974386593 73.65201351663148 H 0.0 **** 0.06
12021 C 88.33729806917219 80.67643623138926 73.95092986715815 C 0.0 **** -0.24
12022 H 89.04332326750173 81.50709891750161 73.93817616841984 H 0.0 **** 0.06
12023 H 87.32022253412246 81.06462906459684 73.88730247250994 H 0.0 **** 0.06
12024 H 88.45527101150964 80.11436372935927 74.87728216914306 H 0.0 **** 0.06
12025 H 88.53089302741779 80.02155198266418 73.10131505732545 H 0.0 **** 0.06
12026 C 112.87100432532922 86.9918537248717 17.252710123029885 C 0.0 **** -0.24
12027 H 113.76873420293049 87.19006054117663 17.83823281997786 H 0.0 **** 0.06
12028 H 112.3217238012428 86.16288380841863 17.699370516173644 H 0.0 **** 0.06
12029 H 113.15311299836166 86.73260575388191 16.232471488865258 H 0.0 **** 0.06
12030 H 112.24125190039827 87.88166399378508 17.24020822820404 H 0.0 **** 0.06
12031 C 108.08316926973731 29.430831359882916 94.28170037814516 C 0.0 **** -0.24
12032 H 107.19811190074904 29.98583404667022 93.97206812633101 H 0.0 **** 0.06
12033 H 108.1129678304394 29.371206166337345 95.37015508402237 H 0.0 **** 0.06
12034 H 108.97631303933838 29.940532056731513 93.9207237894936 H 0.0 **** 0.06
12035 H 108.04537207755266 28.424450753738938 93.8633103470874 H 0.0 **** 0.06
12036 C 14.652585206287966 89.05710359051072 99.36854819945361 C 0.0 **** -0.24
12037 H 15.488066984506219 88.5782266471289 99.87877242062174 H 0.0 **** 0.06
12038 H 14.72081807705922 88.86216348836307 98.29794071793356 H 0.0 **** 0.06
12039 H 14.686474882546918 90.13192030618008 99.54502254189185 H 0.0 **** 0.06
12040 H 13.714826301797757 88.65469903710803 99.75240696238677 H 0.0 **** 0.06
12041 C 116.09086390943203 10.386913086480945 8.817077761374204 C 0.0 **** -0.24
12042 H 116.1580640278697 9.717945528886247 7.960088747349495 H 0.0 **** 0.06
12043 H 115.33431499155718 10.016893948473466 9.509179841463858 H 0.0 **** 0.06
12044 H 115.81695474608625 11.385374769652742 8.477269421223912 H 0.0 **** 0.06
12045 H 117.05598761238797 10.428151266581153 9.321876088730189 H 0.0 **** 0.06
12046 C 121.99852523283982 104.53697895779584 1.6145305453185301 C 0.0 **** -0.24
12047 H 122.29571933589483 105.48045323849243 1.1568880612377797 H 0.0 **** 0.06
12048 H 122.48277426982037 103.71149194203866 1.0934588337145783 H 0.0 **** 0.06
12049 H 120.91607547518277 104.42593057808887 1.5449853980612147 H 0.0 **** 0.06
12050 H 122.29729762535504 104.53098819352374 2.6631209872811326 H 0.0 **** 0.06
12051 C 108.13306435342336 48.178351808883974 42.417781446367286 C 0.0 **** -0.24
12052 H 108.7539140456255 47.98224432995977 43.29104322697477 H 0.0 **** 0.06
12053 H 108.76788403350571 48.44223261136614 41.57201576091815 H 0.0 **** 0.06
12054 H 107.45435656821866 49.003579022073836 42.633295936250946 H 0.0 **** 0.06
12055 H 107.55478076104869 47.286468488659125 42.17470536237594 H 0.0 **** 0.06
12056 C 22.592721111490803 33.44751443490582 102.78846340033493 C 0.0 **** -0.24
12057 H 23.45788905267588 32.79661655410191 102.66398823574141 H 0.0 **** 0.06
12058 H 22.850230539621023 34.270847143613224 103.45448880138878 H 0.0 **** 0.06
12059 H 21.768182949041694 32.87695001616218 103.21745971940045 H 0.0 **** 0.06
12060 H 22.294215703905756 33.844913395432904 101.8184931520207 H 0.0 **** 0.06
12061 C 25.96123750132628 18.563756713603354 69.98559087089131 C 0.0 **** -0.24
12062 H 25.0802924672752 18.019366981906344 69.64595966437241 H 0.0 **** 0.06
12063 H 25.860448320651756 19.61778834227188 69.72222856816916 H 0.0 **** 0.06
12064 H 26.84965879300256 18.152262984689884 69.50615865817622 H 0.0 **** 0.06
12065 H 26.05290204031013 18.466028855397525 71.06769050931015 H 0.0 **** 0.06
12066 C 69.9058125218736 73.74949356682478 114.96934457602725 C 0.0 **** -0.24
12067 H 70.60432279746146 73.36869696970552 115.7151241061826 H 0.0 **** 0.06
12068 H 68.89537217122088 73.73476403221807 115.37777332289147 H 0.0 **** 0.06
12069 H 69.94774434674261 73.12334567867748 114.0785195578427 H 0.0 **** 0.06
12070 H 70.17710023294518 74.7722050601882 114.70746504839343 H 0.0 **** 0.06
12071 C 75.19134040925164 39.74899178008599 118.07959051196792 C 0.0 **** -0.24
12072 H 75.6375252138117 40.67289101915006 118.44540185237116 H 0.0 **** 0.06
12073 H 74.970559632332 39.093407930007004 118.92225497588831 H 0.0 **** 0.06
12074 H 75.8872973379681 39.251806282139256 117.40337214517768 H 0.0 **** 0.06
12075 H 74.26801576783379 39.97801330754578 117.545876594032 H 0.0 **** 0.06
12076 C 23.000035791044183 114.45688640758414 44.37188403806215 C 0.0 **** -0.24
12077 H 22.768675568962948 114.82848157362055 43.37393406147771 H 0.0 **** 0.06
12078 H 23.220243826324463 113.38980572711944 44.320201914051836 H 0.0 **** 0.06
12079 H 22.145933910189058 114.62174143712149 45.028119103430015 H 0.0 **** 0.06
12080 H 23.86764632499711 114.98780743930239 44.76467860264677 H 0.0 **** 0.06
12081 C 86.3142797162928 62.66292956137758 10.602557185803676 C 0.0 **** -0.24
12082 H 85.97848199807072 63.365667798820795 11.365002960666914 H 0.0 **** 0.06
12083 H 85.661757172274 61.78817980753868 10.602314934204031 H 0.0 **** 0.06
12084 H 87.33705768243978 62.35248540306495 10.819265362530672 H 0.0 **** 0.06
12085 H 86.27964710111682 63.14349526972731 9.62482773000525 H 0.0 **** 0.06
12086 C 70.9906806481261 63.39934617065521 30.737361760767783 C 0.0 **** -0.24
12087 H 70.51445771238474 63.752452373252765 31.652383873228473 H 0.0 **** 0.06
12088 H 70.35410390960845 62.65494772000551 30.259258528091834 H 0.0 **** 0.06
12089 H 71.95520074089148 62.95210855482742 30.978586209249272 H 0.0 **** 0.06
12090 H 71.1394734043065 64.24010107887352 30.058331780836568 H 0.0 **** 0.06
12091 C 107.475901967894 34.74878994526284 66.26876273192521 C 0.0 **** -0.24
12092 H 107.35016765190542 34.30160522946068 65.28264589069705 H 0.0 **** 0.06
12093 H 107.56855320751967 33.959964475979476 67.01616349823024 H 0.0 **** 0.06
12094 H 106.60931207448402 35.36766822357167 66.4996313021285 H 0.0 **** 0.06
12095 H 108.37553456351861 35.364534993334956 66.27688428063614 H 0.0 **** 0.06
12096 C 101.96602899441092 83.09972295939613 5.679014538687284 C 0.0 **** -0.24
12097 H 101.98616045076926 83.01035285385728 6.764703427224731 H 0.0 **** 0.06
12098 H 102.00621112684803 84.1524034598969 5.399790889116758 H 0.0 **** 0.06
12099 H 101.04578032339577 82.6574251904178 5.296043481839405 H 0.0 **** 0.06
12100 H 102.82359819945083 82.57807651742829 5.255555345295463 H 0.0 **** 0.06
12101 C 95.80403704418691 46.820631540016656 118.7335729845289 C 0.0 **** -0.24
12102 H 96.355871146899 47.242725465737124 119.57302548971288 H 0.0 **** 0.06
12103 H 94.75746218903926 46.69480751538723 119.01394984420281 H 0.0 **** 0.06
12104 H 96.22860833633673 45.85192290877967 118.46946972993993 H 0.0 **** 0.06
12105 H 95.87285416762981 47.49362910380065 117.87953777879508 H 0.0 **** 0.06
12106 C 107.49145014291665 5.636978966829659 70.72509809808383 C 0.0 **** -0.24
12107 H 106.60248287383314 5.842690491636187 70.12891048861151 H 0.0 **** 0.06
12108 H 107.41562302714473 6.156416002030522 71.6818996863068 H 0.0 **** 0.06
12109 H 108.37635206241137 5.98587563657502 70.19137766929461 H 0.0 **** 0.06
12110 H 107.57175876132123 4.563880832409001 70.89916887914652 H 0.0 **** 0.06
12111 C 88.80300147710233 52.39920921160005 122.85803421197801 C 0.0 **** -0.24
12112 H 88.17801189930833 51.523371250083585 123.03411553521107 H 0.0 **** 0.06
12113 H 88.79551584958978 53.03403950482131 123.74548691900262 H 0.0 **** 0.06
12114 H 88.41438918529752 52.9591134133031 122.0077022471271 H 0.0 **** 0.06
12115 H 89.82337551933705 52.08039914581286 122.64774487520651 H 0.0 **** 0.06
12116 C 60.48615702056881 122.92081009866244 6.640047500935108 C 0.0 **** -0.24
12117 H 60.22755224777018 122.94128886017333 7.698694701365149 H 0.0 **** 0.06
12118 H 61.176069382234886 122.09841104025459 6.45010423348646 H 0.0 **** 0.06
12119 H 60.95838631637881 123.86353871845137 6.364043988888568 H 0.0 **** 0.06
12120 H 59.58212221685025 122.78075983507996 6.048432220525665 H 0.0 **** 0.06
12121 C 5.255283552441114 26.40888113666906 34.51580089467593 C 0.0 **** -0.24
12122 H 5.262400166415915 25.343759407212517 34.28819450683462 H 0.0 **** 0.06
12123 H 4.939218740101268 26.966585413412666 33.633553908346634 H 0.0 **** 0.06
12124 H 6.257303782184238 26.725374962662414 34.8068814149959 H 0.0 **** 0.06
12125 H 4.561356846885673 26.600319202652223 35.33450347820187 H 0.0 **** 0.06
12126 C 49.36473069573478 7.142305059374678 65.65692311926995 C 0.0 **** -0.24
12127 H 50.00154273321033 7.963893039301979 65.32929022213216 H 0.0 **** 0.06
12128 H 48.65309018096056 7.507327019171271 66.39829449593174 H 0.0 **** 0.06
12129 H 49.98129466807609 6.35980291554057 66.09902826520812 H 0.0 **** 0.06
12130 H 48.82334201829957 6.73901632575155 64.80153655854502 H 0.0 **** 0.06
12131 C 82.22661535315927 76.34899409561461 74.73438196444215 C 0.0 **** -0.24
12132 H 82.60721417950509 75.7769759473208 73.8892699124261 H 0.0 **** 0.06
12133 H 81.31128883202678 75.88477192555604 75.10516895001498 H 0.0 **** 0.06
12134 H 82.01286632036488 77.36914257121072 74.41549304228786 H 0.0 **** 0.06
12135 H 82.97311170394653 76.36555555785654 75.52852214600668 H 0.0 **** 0.06
12136 C 109.51551545639245 17.976019414488686 43.18992432757895 C 0.0 **** -0.24
12137 H 110.496620096886 17.519297852416415 43.32430016621987 H 0.0 **** 0.06
12138 H 109.59475150609441 19.054154036254896 43.326639550418605 H 0.0 **** 0.06
12139 H 108.82142443561347 17.565474951271046 43.923316861957574 H 0.0 **** 0.06
12140 H 109.15036831227704 17.76240674003786 42.18493579940477 H 0.0 **** 0.06
12141 C 78.12001351857423 71.86030415885344 90.88647888453502 C 0.0 **** -0.24
12142 H 77.95742927070496 72.21905514401581 89.87022459073548 H 0.0 **** 0.06
12143 H 78.08880026227477 70.77085487159215 90.89666139373159 H 0.0 **** 0.06
12144 H 77.33996021779855 72.25307868163267 91.53903290909525 H 0.0 **** 0.06
12145 H 79.0934705981089 72.20059079530748 91.23948458188086 H 0.0 **** 0.06
12146 C 81.669156618356 112.42674684861757 57.25417740935431 C 0.0 **** -0.24
12147 H 81.94308033358836 112.83477673027144 56.281260598782325 H 0.0 **** 0.06
12148 H 80.75544065469133 111.83943590966811 57.157835523852015 H 0.0 **** 0.06
12149 H 81.5051154449495 113.24316733175803 57.95735717661236 H 0.0 **** 0.06
12150 H 82.47451614008222 111.78840947100989 57.61977039043437 H 0.0 **** 0.06
12151 C 57.80398155973967 17.51092082673557 91.2397170824421 C 0.0 **** -0.24
12152 H 58.07235597472297 16.5284893767994 91.62956626396974 H 0.0 **** 0.06
12153 H 56.72139703912609 17.63546370279144 91.28379209449136 H 0.0 **** 0.06
12154 H 58.138372992185026 17.594817177921385 90.2057071813816 H 0.0 **** 0.06
12155 H 58.28363030098242 18.283430409910636 91.84113437457759 H 0.0 **** 0.06
12156 C 22.97064279378344 95.45314638742977 61.480286007863555 C 0.0 **** -0.24
12157 H 22.00838032238329 95.20795712557515 61.03186341924592 H 0.0 **** 0.06
12158 H 23.670992691001743 95.74890487127402 60.69796142737471 H 0.0 **** 0.06
12159 H 23.359873210137664 94.5808472412789 62.0054732091472 H 0.0 **** 0.06
12160 H 22.843953736501078 96.27563026268655 62.18383688250074 H 0.0 **** 0.06
12161 C 50.09993935788401 86.25001937112349 51.450032255514344 C 0.0 **** -0.24
12162 H 50.25333518841143 85.50025533924196 52.225769509659116 H 0.0 **** 0.06
12163 H 50.07077765738663 85.76253705594712 50.47495258837308 H 0.0 **** 0.06
12164 H 50.91970603263371 86.96827371641034 51.47246031802195 H 0.0 **** 0.06
12165 H 49.15815792168735 86.76864868748329 51.625975429331724 H 0.0 **** 0.06
12166 C 4.162548156013941 84.37406410129654 10.30236236329094 C 0.0 **** -0.24
12167 H 3.299118415333737 84.1678825842389 10.935149839614041 H 0.0 **** 0.06
12168 H 5.033172913817992 84.57175806766469 10.928038283658395 H 0.0 **** 0.06
12169 H 3.9566916522426396 85.24370005548059 9.678633182035185 H 0.0 **** 0.06
12170 H 4.360835665191701 83.5100223005177 9.666928951444731 H 0.0 **** 0.06
12171 C 55.08958558894585 64.29996164091519 26.88389609844939 C 0.0 **** -0.24
12172 H 55.59457034306104 64.64096219901955 27.788382026124957 H 0.0 **** 0.06
12173 H 54.973706575756296 65.1370326135813 26.1955749979999 H 0.0 **** 0.06
12174 H 54.10865866358199 63.90392285972398 27.14480279857156 H 0.0 **** 0.06
12175 H 55.68239603110396 63.51798058825183 26.409989896748264 H 0.0 **** 0.06
12176 C 12.230114744033173 115.79635623701247 122.3006612572212 C 0.0 **** -0.24
12177 H 12.026422697841795 115.44019324018052 123.31045439093836 H 0.0 **** 0.06
12178 H 13.166881592043836 116.35306319912665 122.29338760790485 H 0.0 **** 0.06
12179 H 11.417823629966861 116.44586368913518 121.97389537544477 H 0.0 **** 0.06
12180 H 12.308721591190704 114.94443691051231 121.62453391349416 H 0.0 **** 0.06
12181 C 106.42261481669124 11.668247272087484 122.90588563698947 C 0.0 **** -0.24
12182 H 107.09751981200651 11.117604704440652 122.25082098248816 H 0.0 **** 0.06
12183 H 106.00760523300164 10.989862706399975 123.65257314476537 H 0.0 **** 0.06
12184 H 105.61379436457824 12.0979916809234 122.31523353381317 H 0.0 **** 0.06
12185 H 106.97218568227248 12.466304390750764 123.40463044439736 H 0.0 **** 0.06
12186 C 9.273239671376672 30.37009700095291 14.46702381599765 C 0.0 **** -0.24
12187 H 10.288341102616329 30.7252498760721 14.648319976984098 H 0.0 **** 0.06
12188 H 9.311391313969892 29.372554402049673 14.029034161347013 H 0.0 **** 0.06
12189 H 8.767469052652672 31.049473918379874 13.781386333294677 H 0.0 **** 0.06
12190 H 8.728895372311172 30.332629197918436 15.410741022773621 H 0.0 **** 0.06
12191 C 6.931074795798622 102.31169936693021 52.33448900187048 C 0.0 **** -0.24
12192 H 6.575088279018416 103.00753099940823 53.094216351458456 H 0.0 **** 0.06
12193 H 6.148104546907092 102.1513348220372 51.59421510835256 H 0.0 **** 0.06
12194 H 7.188066228363368 101.36241954555848 52.80462508522848 H 0.0 **** 0.06
12195 H 7.813439391244117 102.72662864300594 51.84679529762026 H 0.0 **** 0.06
12196 C 12.391210787044798 11.62255534578063 98.72638911863665 C 0.0 **** -0.24
12197 H 13.358378891609206 12.015087918778448 99.03891702730787 H 0.0 **** 0.06
12198 H 11.603983264432696 12.314352562490292 99.02656766978018 H 0.0 **** 0.06
12199 H 12.222417153332973 10.654322731697608 99.1991259305537 H 0.0 **** 0.06
12200 H 12.37987126427219 11.50486232945492 97.64347896555968 H 0.0 **** 0.06
12201 C 101.89900502389833 30.6906552894429 100.03661380778748 C 0.0 **** -0.24
12202 H 102.01307052301928 31.693754987256824 99.62497829508396 H 0.0 **** 0.06
12203 H 101.26919752711075 30.09622153797949 99.37378365894023 H 0.0 **** 0.06
12204 H 101.43471438797616 30.752794976452748 101.02132474218622 H 0.0 **** 0.06
12205 H 102.8791285526193 30.22077664425757 100.12600455056936 H 0.0 **** 0.06
12206 C 71.69727176059797 94.77933859825157 41.696133935708474 C 0.0 **** -0.24
12207 H 72.35815371256518 95.60237916327743 41.423121092020835 H 0.0 **** 0.06
12208 H 71.75653648320053 94.60784497229895 42.771731643386204 H 0.0 **** 0.06
12209 H 72.00271865339477 93.87734799398886 41.1670112791212 H 0.0 **** 0.06
12210 H 70.67233290680701 95.03108890766835 41.4243641523409 H 0.0 **** 0.06
12211 C 72.3622020824362 74.04591707058725 10.11004411488872 C 0.0 **** -0.24
12212 H 73.40959227714742 73.8415055517954 10.331625719910122 H 0.0 **** 0.06
12213 H 72.19104110247801 75.12236476497108 10.129614608487316 H 0.0 **** 0.06
12214 H 71.73277495482759 73.5639140871568 10.858281601334578 H 0.0 **** 0.06
12215 H 72.1169213683365 73.6559970111187 9.123036347205005 H 0.0 **** 0.06
12216 C 67.41220528439045 72.17100207604811 19.06807429189189 C 0.0 **** -0.24
12217 H 68.12271934274072 72.71048746249606 19.69400557748891 H 0.0 **** 0.06
12218 H 67.4386250513242 71.11108708706277 19.319937130808626 H 0.0 **** 0.06
12219 H 67.67906388008113 72.30281440686439 18.01942911164936 H 0.0 **** 0.06
12220 H 66.40801872975749 72.56096733594772 19.238758933146983 H 0.0 **** 0.06
12221 C 119.56420618029334 85.88621793249467 64.44104246796267 C 0.0 **** -0.24
12222 H 119.6816966150334 84.86941344695131 64.06579006646695 H 0.0 **** 0.06
12223 H 119.8529345716009 86.59487763558471 63.66443891461272 H 0.0 **** 0.06
12224 H 120.19967447118938 86.02660624004434 65.3155691361708 H 0.0 **** 0.06
12225 H 118.52351469827539 86.05335005776547 64.71758498533465 H 0.0 **** 0.06
12226 C 52.380871663065534 30.223293121599298 58.52691961185322 C 0.0 **** -0.24
12227 H 51.511958863552934 29.77284808509632 59.00682223648205 H 0.0 **** 0.06
12228 H 52.553447912965396 31.21515471390861 58.94441178467159 H 0.0 **** 0.06
12229 H 52.201495329602665 30.305401599843876 57.45457028631432 H 0.0 **** 0.06
12230 H 53.25634349342545 29.598304126348552 58.70020112490862 H 0.0 **** 0.06
12231 C 1.511811222167255 67.67547779647833 77.74476110126551 C 0.0 **** -0.24
12232 H 2.254380504400869 68.43023633875288 77.48217356551734 H 0.0 **** 0.06
12233 H 0.5479008814289283 68.15731063728771 77.91124450547255 H 0.0 **** 0.06
12234 H 1.8239805510806377 67.16182587973003 78.6544933521931 H 0.0 **** 0.06
12235 H 1.4235717917268893 66.95503234399075 76.93141315977468 H 0.0 **** 0.06
12236 C 22.6805332048109 44.18216424755451 117.84264027099317 C 0.0 **** -0.24
12237 H 21.982851840747855 44.54985119922213 118.59493390778204 H 0.0 **** 0.06
12238 H 23.008011798697964 45.012109064184045 117.21544321266705 H 0.0 **** 0.06
12239 H 22.186608530442413 43.43234460060836 117.22443833454145 H 0.0 **** 0.06
12240 H 23.543677767594716 43.736357105036376 118.33562616583937 H 0.0 **** 0.06
12241 C 64.16310414486418 98.0332148110174 94.27342837936143 C 0.0 **** -0.24
12242 H 64.7154954539526 97.41329156552241 93.56642994798958 H 0.0 **** 0.06
12243 H 63.093542674730855 97.89329222695751 94.11897255623624 H 0.0 **** 0.06
12244 H 64.42077026383382 99.08057693856306 94.11450236021997 H 0.0 **** 0.06
12245 H 64.42542938768747 97.74492813577731 95.29147453732882 H 0.0 **** 0.06
12246 C 92.96312150431726 102.29085521127516 1.702352580900392 C 0.0 **** -0.24
12247 H 92.69663082096133 101.25271527088238 1.9019569727724814 H 0.0 **** 0.06
12248 H 92.12885471911511 102.93829222524117 1.9716385423651328 H 0.0 **** 0.06
12249 H 93.18874691786533 102.40944766290156 0.6419272965344796 H 0.0 **** 0.06
12250 H 93.83917546267458 102.56125540822038 2.292395745990177 H 0.0 **** 0.06
12251 C 29.736615966381464 37.896885857620866 77.99238586997495 C 0.0 **** -0.24
12252 H 29.07030421176492 37.03451979867752 78.01962827182214 H 0.0 **** 0.06
12253 H 29.187380425872306 38.767482164018176 77.63138421230167 H 0.0 **** 0.06
12254 H 30.571210958151312 37.6896788990301 77.32287772003644 H 0.0 **** 0.06
12255 H 30.11542446114248 38.095740074225986 78.99502929824268 H 0.0 **** 0.06
12256 C 79.69087313394546 81.71388953001963 28.95398963784953 C 0.0 **** -0.24
12257 H 79.93821601381092 81.13704537550439 28.062679903752212 H 0.0 **** 0.06
12258 H 79.57669272902083 81.04024777509125 29.803303673735456 H 0.0 **** 0.06
12259 H 78.75837469130441 82.25359658599405 28.790558840663323 H 0.0 **** 0.06
12260 H 80.49140502960265 82.42540086678719 29.159233563296084 H 0.0 **** 0.06
12261 C 63.49668246702052 52.58765128475166 20.848514097214178 C 0.0 **** -0.24
12262 H 62.68724132412815 51.918540588202745 20.556287079889927 H 0.0 **** 0.06
12263 H 63.61427788674396 53.36602714210781 20.093943291293897 H 0.0 **** 0.06
12264 H 64.42452424805506 52.02120096620328 20.93302691131545 H 0.0 **** 0.06
12265 H 63.26201586792101 53.044912097113496 21.80969141658187 H 0.0 **** 0.06
12266 C 17.195873168343894 50.1611478616058 3.332693491902347 C 0.0 **** -0.24
12267 H 16.173608446612945 50.458645363384335 3.5670645681122153 H 0.0 **** 0.06
12268 H 17.81223543665368 51.05010997226111 3.2038814020318824 H 0.0 **** 0.06
12269 H 17.20063830042733 49.57780964155262 2.4110001513808754 H 0.0 **** 0.06
12270 H 17.594238145068744 49.55615039396412 4.147155961609883 H 0.0 **** 0.06
12271 C 102.28722077090076 55.10211587268367 61.68931976101064 C 0.0 **** -0.24
12272 H 103.19655115784425 54.50462969877492 61.74838063305819 H 0.0 **** 0.06
12273 H 101.68035141115475 54.757688529345614 60.85223370373009 H 0.0 **** 0.06
12274 H 102.55019679682113 56.14974298328832 61.541767151210564 H 0.0 **** 0.06
12275 H 101.72241117004646 54.99589885181143 62.61606072913597 H 0.0 **** 0.06
12276 C 53.510099759240575 108.43622473960508 14.934873438794625 C 0.0 **** -0.24
12277 H 54.102991558623046 108.93565182806807 14.168152079677668 H 0.0 **** 0.06
12278 H 53.766579353788984 108.84096455049087 15.913965679756132 H 0.0 **** 0.06
12279 H 53.71917340981298 107.36642355423751 14.916891188459488 H 0.0 **** 0.06
12280 H 52.45079343917649 108.60289389279265 14.738699443885139 H 0.0 **** 0.06
12281 C 78.03662473785784 109.69609725134451 79.21587998416052 C 0.0 **** -0.24
12282 H 77.36712224543801 109.80908326275473 78.36280418741111 H 0.0 **** 0.06
12283 H 78.92145442811899 110.31537671575177 79.06678236111722 H 0.0 **** 0.06
12284 H 78.33483299301543 108.6522713383685 79.30738922514237 H 0.0 **** 0.06
12285 H 77.52215221129867 110.0087874475429 80.12485721134996 H 0.0 **** 0.06
12286 C 55.22439666076838 123.52988831828276 13.859803433411258 C 0.0 **** -0.24
12287 H 54.21115674469783 123.14955247541081 13.736843535577776 H 0.0 **** 0.06
12288 H 55.66736886859074 123.09909412811419 14.758767723396232 H 0.0 **** 0.06
12289 H 55.19522485264753 124.61541695322347 13.953100196646403 H 0.0 **** 0.06
12290 H 55.82348972707706 123.2550751163003 12.991809254066709 H 0.0 **** 0.06
12291 C 6.259030207983695 120.42467101492196 70.24922061914228 C 0.0 **** -0.24
12292 H 5.726313680417153 121.14482001860925 69.62855307893963 H 0.0 **** 0.06
12293 H 6.313320371447869 119.46756041258311 69.73097497038933 H 0.0 **** 0.06
12294 H 5.730827584957584 120.29825162563368 71.19411893037417 H 0.0 **** 0.06
12295 H 7.268052860775853 120.79034774621648 70.44325823449756 H 0.0 **** 0.06
12296 C 90.29609672912545 55.64884529022652 9.870217578542963 C 0.0 **** -0.24
12297 H 89.36548993780866 55.0825650166783 9.898241244362225 H 0.0 **** 0.06
12298 H 90.88846295274647 55.33251846854553 9.011412986282267 H 0.0 **** 0.06
12299 H 90.85885193296252 55.46736970100477 10.785892683231225 H 0.0 **** 0.06
12300 H 90.07197992722132 56.71158602101764 9.78512092673796 H 0.0 **** 0.06
12301 C 75.87492258383843 1.3797000261847359 86.58098956631433 C 0.0 **** -0.24
12302 H 76.22185417928705 2.3210977231372 87.00771264102131 H 0.0 **** 0.06
12303 H 75.0591040429807 0.984405514644692 87.18671565772208 H 0.0 **** 0.06
12304 H 76.69599661646035 0.6637513642653801 86.56487762505954 H 0.0 **** 0.06
12305 H 75.52184766444687 1.5513727075353643 85.56328362007173 H 0.0 **** 0.06
12306 C 98.40031308852362 112.2036435101666 103.77950975520747 C 0.0 **** -0.24
12307 H 99.44507196255324 112.04673699831746 104.04896844108845 H 0.0 **** 0.06
12308 H 97.79286111881677 112.23844046748921 104.68405826146795 H 0.0 **** 0.06
12309 H 98.06257449224557 111.38308880633488 103.14579422570188 H 0.0 **** 0.06
12310 H 98.30180376094438 113.14513860946593 103.23850269873537 H 0.0 **** 0.06
12311 C 53.63866530248903 43.09295091339436 83.04740320457209 C 0.0 **** -0.24
12312 H 53.27047100933402 43.044673345167126 82.02246078561932 H 0.0 **** 0.06
12313 H 53.00674320930236 42.47905889129144 83.68926905083902 H 0.0 **** 0.06
12314 H 53.61415816369643 44.12657688595834 83.3939208913939 H 0.0 **** 0.06
12315 H 54.663631581972695 42.7222693011255 83.08282967787663 H 0.0 **** 0.06
12316 C 95.46104346720904 94.1708686697965 58.20569138798311 C 0.0 **** -0.24
12317 H 94.63087874660978 93.49270086492956 58.403720887834865 H 0.0 **** 0.06
12318 H 96.29136526424563 93.9334505534568 58.87124010411834 H 0.0 **** 0.06
12319 H 95.1394947936667 95.19854739707739 58.378655726765714 H 0.0 **** 0.06
12320 H 95.78165753513878 94.06020392146996 57.170683879652586 H 0.0 **** 0.06
12321 C 51.75964257461047 73.94826991944717 80.43425899351695 C 0.0 **** -0.24
12322 H 52.4738547200853 73.24168331288138 80.85682032167045 H 0.0 **** 0.06
12323 H 51.14318839418409 73.44081861783849 79.69181898842038 H 0.0 **** 0.06
12324 H 52.2978926130441 74.76901660428541 79.96069859034472 H 0.0 **** 0.06
12325 H 51.1243191516182 74.34093995679063 81.2280795590686 H 0.0 **** 0.06
12326 C 94.25789632623425 28.532789014009637 74.00599607031839 C 0.0 **** -0.24
12327 H 94.79950239253208 27.808579237461146 73.39741675746635 H 0.0 **** 0.06
12328 H 94.38906623833005 28.291275872778783 75.06044831028485 H 0.0 **** 0.06
12329 H 93.19818235836806 28.498345942751342 73.75391340924268 H 0.0 **** 0.06
12330 H 94.64588594215488 29.533347341578775 73.8113454209129 H 0.0 **** 0.06
12331 C 48.01918643422508 50.673676453097784 77.3055315899856 C 0.0 **** -0.24
12332 H 47.34102043944901 51.2296467866021 76.65655262994864 H 0.0 **** 0.06
12333 H 48.97644210686772 51.19222770127766 77.36021151110009 H 0.0 **** 0.06
12334 H 48.17028838252605 49.673657052166305 76.8983778903534 H 0.0 **** 0.06
12335 H 47.587691491638935 50.59915480034161 78.30247853594915 H 0.0 **** 0.06
12336 C 66.65340061655674 71.14354908893813 104.78681718292 C 0.0 **** -0.24
12337 H 65.69708425433733 71.25437957879024 105.29730644680382 H 0.0 **** 0.06
12338 H 67.45800353989833 71.12418345801973 105.52233118648167 H 0.0 **** 0.06
12339 H 66.80164834687227 71.9822599079065 104.10750767037621 H 0.0 **** 0.06
12340 H 66.65685475071419 70.21198046427423 104.21987914826406 H 0.0 **** 0.06
12341 C 8.290850315444999 55.25670623974706 50.83508542309641 C 0.0 **** -0.24
12342 H 9.153690124511627 55.229776836464495 50.16884595316434 H 0.0 **** 0.06
12343 H 8.480906095395966 55.961925259580056 51.645509852890534 H 0.0 **** 0.06
12344 H 8.121581790202214 54.26341999564242 51.25017972839721 H 0.0 **** 0.06
12345 H 7.410670201988154 55.573064940231035 50.276320007690146 H 0.0 **** 0.06
12346 C 89.77430281435818 111.91775292999868 107.80400577252422 C 0.0 **** -0.24
12347 H 90.18796162865478 111.91477694535185 106.79518553307403 H 0.0 **** 0.06
12348 H 90.53052747596912 111.57070337005223 108.50807577436537 H 0.0 **** 0.06
12349 H 88.90948959597439 111.25598325593657 107.84343501254244 H 0.0 **** 0.06
12350 H 89.46949577969627 112.93113026339907 108.0677685997852 H 0.0 **** 0.06
12351 C 3.441193883201633 30.279258516542654 94.80957157458649 C 0.0 **** -0.24
12352 H 4.3766368049674504 30.28286231239315 94.24914466969258 H 0.0 **** 0.06
12353 H 3.1772891573374125 31.300752181950656 95.08239874249881 H 0.0 **** 0.06
12354 H 3.5617055342449575 29.679859774728698 95.71248123121245 H 0.0 **** 0.06
12355 H 2.651457548729814 29.851473469569555 94.19218906038176 H 0.0 **** 0.06
12356 C 44.28599883745835 30.265606300553713 31.675657253374396 C 0.0 **** -0.24
12357 H 44.92900225264903 29.465064234997016 31.307831482671077 H 0.0 **** 0.06
12358 H 43.834873395610686 29.962429125992543 32.62088483740385 H 0.0 **** 0.06
12359 H 43.50120157095323 30.46545374673468 30.945810709031576 H 0.0 **** 0.06
12360 H 44.879559296816716 31.166724470028697 31.82818497367532 H 0.0 **** 0.06
12361 C 59.93354239537683 111.36088312819076 98.19560907566105 C 0.0 **** -0.24
12362 H 60.090484073671135 110.92204478571084 99.18159132390865 H 0.0 **** 0.06
12363 H 60.19890380398081 112.41795392805267 98.22312959867898 H 0.0 **** 0.06
12364 H 58.88600849827141 111.25510471784852 97.91451062522806 H 0.0 **** 0.06
12365 H 60.55973585706717 110.84788680513866 97.46599397003403 H 0.0 **** 0.06
12366 C 103.25204092841767 104.51362208649203 121.13856167792187 C 0.0 **** -0.24
12367 H 103.9933197210271 103.93853100187548 120.5816947079431 H 0.0 **** 0.06
12368 H 103.6658882205334 105.49059497031121 121.39023043387137 H 0.0 **** 0.06
12369 H 102.99241068770121 103.98150728635397 122.05289728486935 H 0.0 **** 0.06
12370 H 102.35997802978503 104.64318766845722 120.5262984862764 H 0.0 **** 0.06
12371 C 53.239280991086645 118.42551947462668 31.736163755462456 C 0.0 **** -0.24
12372 H 53.94943015681204 117.7589802996289 31.247804929506287 H 0.0 **** 0.06
12373 H 53.14555726373162 119.34484403280305 31.15652764187152 H 0.0 **** 0.06
12374 H 53.59493048766279 118.6636705708057 32.738824825345176 H 0.0 **** 0.06
12375 H 52.26758181214804 117.93617416808735 31.80206958435278 H 0.0 **** 0.06
12376 C 48.446118352163246 116.80947135860882 65.25423272523719 C 0.0 **** -0.24
12377 H 48.62302184330054 116.03976143698 66.0054247745588 H 0.0 **** 0.06
12378 H 47.868011774998806 117.62231840740827 65.6960056017032 H 0.0 **** 0.06
12379 H 47.89157038427836 116.3810746838864 64.41950490600573 H 0.0 **** 0.06
12380 H 49.400619357704564 117.19498037920653 64.89660819481256 H 0.0 **** 0.06
12381 C 82.72514047549377 22.310367649884803 44.51335800025846 C 0.0 **** -0.24
12382 H 82.94505963249637 23.378118159000024 44.51638143520009 H 0.0 **** 0.06
12383 H 82.6972067194488 21.94766950621584 43.486060844751265 H 0.0 **** 0.06
12384 H 81.75961231459064 22.13683401829276 44.98716290641572 H 0.0 **** 0.06
12385 H 83.50126919641366 21.77900509777755 45.06533972435167 H 0.0 **** 0.06
12386 C 7.864639170168147 113.01220467600922 7.568385999512003 C 0.0 **** -0.24
12387 H 7.124104847910644 113.62618834259234 7.055991940484091 H 0.0 **** 0.06
12388 H 8.316222931304964 113.58725171399468 8.376710013797407 H 0.0 **** 0.06
12389 H 8.636684813802617 112.70783933263573 6.861374688868864 H 0.0 **** 0.06
12390 H 7.37967923607323 112.12637235202476 7.97986834685355 H 0.0 **** 0.06
12391 C 42.22755780149984 97.3865201556374 95.28229953112418 C 0.0 **** -0.24
12392 H 42.81535441214912 96.49837953137042 95.5180667440145 H 0.0 **** 0.06
12393 H 42.68002290154614 98.25698113700332 95.7575696977525 H 0.0 **** 0.06
12394 H 41.2104066869249 97.25624603528107 95.65209674892617 H 0.0 **** 0.06
12395 H 42.20600859570011 97.53071909405936 94.20214630178356 H 0.0 **** 0.06
12396 C 76.69889466484065 0.2765109876381473 81.35657967178969 C 0.0 **** -0.24
12397 H 75.8411556164262 0.8831412225196686 81.06519638844975 H 0.0 **** 0.06
12398 H 76.94709062942013 0.4762821935552779 82.39995833998597 H 0.0 **** 0.06
12399 H 77.5511600495696 0.5262523941910331 80.72528607474646 H 0.0 **** 0.06
12400 H 76.45474783944069 -0.7788109294910157 81.23642282835192 H 0.0 **** 0.06
12401 C 96.703272108886 91.1456227421138 47.12668284801697 C 0.0 **** -0.24
12402 H 96.56251437989759 91.36370263806865 48.185150186918094 H 0.0 **** 0.06
12403 H 97.34788631737112 91.9056803773705 46.68159769584955 H 0.0 **** 0.06
12404 H 95.73693558806085 91.14857926948729 46.62317053075901 H 0.0 **** 0.06
12405 H 97.1685334771494 90.16565171862648 47.016872099289685 H 0.0 **** 0.06
12406 C 123.10053159308453 26.58378392261603 10.165054175122606 C 0.0 **** -0.24
12407 H 122.15499359834017 26.711910762040176 9.638067339991295 H 0.0 **** 0.06
12408 H 123.52889458714341 25.613796210710696 9.910492299478335 H 0.0 **** 0.06
12409 H 122.92696348645163 26.633437318244084 11.239818027610823 H 0.0 **** 0.06
12410 H 123.79022705184524 27.37485603913209 9.87022235238939 H 0.0 **** 0.06
12411 C 103.31090562524474 23.41742495624323 89.47147070870801 C 0.0 **** -0.24
12412 H 102.76020021117537 22.61278693430947 88.98469161651616 H 0.0 **** 0.06
12413 H 104.29944297990491 23.50543013958371 89.02072832758756 H 0.0 **** 0.06
12414 H 103.41404940934504 23.194983276238766 90.5336000667042 H 0.0 **** 0.06
12415 H 102.76966373088979 24.35487425895888 89.34739946908213 H 0.0 **** 0.06
12416 C 42.62838950153352 85.31425722236256 90.7514176600202 C 0.0 **** -0.24
12417 H 42.43782219819789 86.38576861725082 90.69271391511944 H 0.0 **** 0.06
12418 H 43.62706449968081 85.10030105698945 90.36958555223771 H 0.0 **** 0.06
12419 H 41.88835237303297 84.78114908921651 90.15356187674143 H 0.0 **** 0.06
12420 H 42.55863650385649 84.98957004159519 91.78947471407548 H 0.0 **** 0.06
12421 C 5.163096493228267 88.05978153859371 68.76151136655504 C 0.0 **** -0.24
12422 H 5.9891107005302615 88.18745995458454 68.06301843729608 H 0.0 **** 0.06
12423 H 4.245662073730216 88.4426631071301 68.31274240379972 H 0.0 **** 0.06
12424 H 5.374652785595714 88.60880997623269 69.67860698388345 H 0.0 **** 0.06
12425 H 5.0406936703653 87.00086856471887 68.9910404843393 H 0.0 **** 0.06
12426 C 115.48555832523122 80.75426238065879 31.731954240900677 C 0.0 **** -0.24
12427 H 115.9764228486496 80.38472661731228 32.63143851786553 H 0.0 **** 0.06
12428 H 115.51250955634146 79.98386820885918 30.960850358449555 H 0.0 **** 0.06
12429 H 116.00309606514729 81.64501850851734 31.37549676940607 H 0.0 **** 0.06
12430 H 114.44888203612123 81.00384053840854 31.961073851261276 H 0.0 **** 0.06
12431 C 93.34681197562391 40.260167686126714 40.39627396322325 C 0.0 **** -0.24
12432 H 92.9716069600808 40.8576890661835 41.2271476641729 H 0.0 **** 0.06
12433 H 94.43720618621214 40.245613929482055 40.421758328792855 H 0.0 **** 0.06
12434 H 93.01162875229299 40.697436746784696 39.45532565054248 H 0.0 **** 0.06
12435 H 92.96679562481461 39.24215748063374 40.48065695703149 H 0.0 **** 0.06
12436 C 42.945915617101264 20.909845111721552 16.047715302082196 C 0.0 **** -0.24
12437 H 43.31047379690034 21.923871246943264 16.21373057372611 H 0.0 **** 0.06
12438 H 43.47001050625934 20.222421744952925 16.710870872079752 H 0.0 **** 0.06
12439 H 43.12595285647285 20.6243169846816 15.011164288897305 H 0.0 **** 0.06
12440 H 41.876133237166755 20.87033524329135 16.25392965492665 H 0.0 **** 0.06
12441 C 102.76166357386437 80.74933226051087 15.090594632878663 C 0.0 **** -0.24
12442 H 101.93569589744493 81.293072175397 15.549167432851789 H 0.0 **** 0.06
12443 H 103.49091537143237 81.45921013205597 14.699189504114713 H 0.0 **** 0.06
12444 H 102.3820134899728 80.13195774752312 14.276334083373513 H 0.0 **** 0.06
12445 H 103.23719020902672 80.11321924111564 15.837159669608468 H 0.0 **** 0.06
12446 C 20.53627247105723 94.35184602325057 20.809548297824925 C 0.0 **** -0.24
12447 H 20.68247672100989 93.77903362105138 19.89404245322966 H 0.0 **** 0.06
12448 H 20.23955481386531 93.6801620575551 21.614943217286523 H 0.0 **** 0.06
12449 H 19.755483255805615 95.09620331890466 20.650488017007447 H 0.0 **** 0.06
12450 H 21.466731210229142 94.85219152038883 21.07760354815254 H 0.0 **** 0.06
12451 C 88.35488991547597 89.5740622627502 71.6567685597117 C 0.0 **** -0.24
12452 H 89.20358873975901 89.84921774579631 71.02970992459366 H 0.0 **** 0.06
12453 H 87.90780467987615 90.47410951210216 72.07748269950301 H 0.0 **** 0.06
12454 H 88.6943938803169 88.92419260041821 72.46280586860095 H 0.0 **** 0.06
12455 H 87.61450761302447 89.04846676230272 71.05385221919624 H 0.0 **** 0.06
12456 C 84.9591866850281 115.59104794124919 98.70173522396816 C 0.0 **** -0.24
12457 H 85.74188305342899 114.89703647117247 99.00596065439959 H 0.0 **** 0.06
12458 H 85.06510383623196 116.52380532567159 99.25625209507231 H 0.0 **** 0.06
12459 H 83.98302020292103 115.15230114824723 98.9114922914628 H 0.0 **** 0.06
12460 H 85.04553973660732 115.79030375628308 97.63316373543466 H 0.0 **** 0.06
12461 C 105.104963019602 15.89185134555909 45.62498371631517 C 0.0 **** -0.24
12462 H 105.51959077129152 15.921692043928857 46.63231535797067 H 0.0 **** 0.06
12463 H 105.91321581855169 15.956058904076372 44.8967038988321 H 0.0 **** 0.06
12464 H 104.42390898286172 16.731649008072964 45.48795094716337 H 0.0 **** 0.06
12465 H 104.56191440917553 14.957083443731477 45.48377496330744 H 0.0 **** 0.06
12466 C 99.40998340881083 43.826175653503626 109.8235561930009 C 0.0 **** -0.24
12467 H 99.17307122384904 44.15846679577331 110.8339407158173 H 0.0 **** 0.06
12468 H 98.57946557620545 44.06624358695403 109.15837928572435 H 0.0 **** 0.06
12469 H 99.57580194114064 42.748867596506784 109.82468360047667 H 0.0 **** 0.06
12470 H 100.31129672523815 44.331587498073375 109.47638636069172 H 0.0 **** 0.06
12471 C 29.17943858535358 7.288867066515564 48.94220151768849 C 0.0 **** -0.24
12472 H 29.20809825208738 8.148858292332307 49.610701614163986 H 0.0 **** 0.06
12473 H 29.06615741264912 7.6309574508741775 47.913472566986854 H 0.0 **** 0.06
12474 H 28.3368976370962 6.649815988193609 49.20851568348968 H 0.0 **** 0.06
12475 H 30.107176471528106 6.723817954459747 49.0380121599714 H 0.0 **** 0.06
12476 C 62.399972327338304 6.359287442013908 110.56617266475331 C 0.0 **** -0.24
12477 H 62.1989371787259 5.3205621354560435 110.30487725942606 H 0.0 **** 0.06
12478 H 62.98436518976165 6.826807436369123 109.77364774479304 H 0.0 **** 0.06
12479 H 62.95991689712581 6.397062940070214 111.50134156544814 H 0.0 **** 0.06
12480 H 61.45683971913677 6.8926390142328415 110.68726650827062 H 0.0 **** 0.06
12481 C 86.41592562561304 26.811556534852002 26.274091220770117 C 0.0 **** -0.24
12482 H 87.33638124362379 26.67410841575571 26.841109873139928 H 0.0 **** 0.06
12483 H 85.65349397800021 27.250629293870105 26.918214539104582 H 0.0 **** 0.06
12484 H 86.06874849310789 25.845385819597624 25.906053222685628 H 0.0 **** 0.06
12485 H 86.60472276406917 27.47465147477547 25.430111112285076 H 0.0 **** 0.06
12486 C 26.888077996132893 9.789966961131483 21.674461486076716 C 0.0 **** -0.24
12487 H 25.81619188633681 9.732181175341054 21.481955008544013 H 0.0 **** 0.06
12488 H 27.4089929936966 10.045759309933999 20.751414583717292 H 0.0 **** 0.06
12489 H 27.24371406421922 8.825784122571775 22.036485102521183 H 0.0 **** 0.06
12490 H 27.082007488180253 10.554404007098896 22.425991252929734 H 0.0 **** 0.06
12491 C 9.494391789077156 1.7435768024700593 114.79494742387361 C 0.0 **** -0.24
12492 H 9.278401284596839 1.8808395008892802 113.73564542045105 H 0.0 **** 0.06
12493 H 9.738998849775754 2.7075772152428215 115.24361146504339 H 0.0 **** 0.06
12494 H 10.338849802557121 1.0648236363360866 114.90930845386819 H 0.0 **** 0.06
12495 H 8.62020822019042 1.3230469876696986 115.2921460538614 H 0.0 **** 0.06
12496 C 32.27220890426793 24.483635980402966 110.71568366801188 C 0.0 **** -0.24
12497 H 33.30641764664381 24.66546151618607 110.42252588639012 H 0.0 **** 0.06
12498 H 31.615825644147293 25.164036773928473 110.17284345005903 H 0.0 **** 0.06
12499 H 32.16364523958492 24.65221048192629 111.7877612552391 H 0.0 **** 0.06
12500 H 32.00389666678137 23.45404679537907 110.48088096194779 H 0.0 **** 0.06
12501 C 123.3060841666915 78.13955066327662 123.75108853861936 C 0.0 **** -0.24
12502 H 123.47072221530414 77.28448810845356 124.4067287199038 H 0.0 **** 0.06
12503 H 123.987450071811 78.94472189518518 124.02721991239953 H 0.0 **** 0.06
12504 H 122.27639818081616 78.4832110465282 123.85431192378613 H 0.0 **** 0.06
12505 H 123.48867147444165 77.84664051823142 122.71784405865401 H 0.0 **** 0.06
12506 C 99.66697596725609 49.25771889995862 97.37185700125116 C 0.0 **** -0.24
12507 H 100.22095531083428 50.02294294164035 97.9154200153481 H 0.0 **** 0.06
12508 H 100.31104127998279 48.81469021748899 96.61260398847281 H 0.0 **** 0.06
12509 H 98.79730209908902 49.709808156255065 96.893626465654 H 0.0 **** 0.06
12510 H 99.33832008120541 48.485288174829805 98.06647181510948 H 0.0 **** 0.06
12511 C 17.942381094036875 36.73706570798703 67.03292962065788 C 0.0 **** -0.24
12512 H 18.417561311830298 35.76146332327835 67.13969339016828 H 0.0 **** 0.06
12513 H 16.911300614174763 36.60406405268628 66.70552573273525 H 0.0 **** 0.06
12514 H 18.48569909631044 37.325300288565415 66.29293072081467 H 0.0 **** 0.06
12515 H 17.956484685246267 37.25464140648262 67.99159856244387 H 0.0 **** 0.06
12516 C 0.49615713845444986 105.3987921812514 36.12268085518997 C 0.0 **** -0.24
12517 H 0.5659987366613422 104.58948960236842 36.84952898028183 H 0.0 **** 0.06
12518 H -0.4055454376939167 105.27140860413596 35.52258197519066 H 0.0 **** 0.06
12519 H 1.37089594204852 105.37961946950765 35.4730501059488 H 0.0 **** 0.06
12520 H 0.45257116213278437 106.35352490335237 36.64508233238942 H 0.0 **** 0.06
12521 C 81.88271016205339 88.92493986375632 88.95280494002586 C 0.0 **** -0.24
12522 H 81.2606506926108 89.66816008454803 88.45402099093133 H 0.0 **** 0.06
12523 H 81.90490111870882 88.0122453067244 88.35778991141586 H 0.0 **** 0.06
12524 H 81.46871925545607 88.70742789020122 89.93740931742843 H 0.0 **** 0.06
12525 H 82.89489679321782 89.31353983255174 89.06277297807225 H 0.0 **** 0.06
12526 C 120.08220179950422 64.98526739265122 70.01004523353822 C 0.0 **** -0.24
12527 H 120.69345778231772 64.08230912995667 70.02740233328882 H 0.0 **** 0.06
12528 H 119.02831734020617 64.7116228674666 70.05546440686265 H 0.0 **** 0.06
12529 H 120.27570832025063 65.5368575889155 69.0912677479489 H 0.0 **** 0.06
12530 H 120.33284206769471 65.60970830734367 70.86857001404394 H 0.0 **** 0.06
12531 C 92.67309023177334 49.4101458887896 118.80725732401794 C 0.0 **** -0.24
12532 H 91.95238438999984 49.8356604712649 118.10953381599504 H 0.0 **** 0.06
12533 H 93.16670173120497 48.55589467959891 118.34245592783552 H 0.0 **** 0.06
12534 H 92.15672840810497 49.08556110349147 119.71054015938785 H 0.0 **** 0.06
12535 H 93.41663523730864 50.16426159993324 119.06441098088513 H 0.0 **** 0.06
12536 C 2.8295247883652337 58.71424641337791 82.39778627901582 C 0.0 **** -0.24
12537 H 1.749503062429767 58.71636685855461 82.25067651807963 H 0.0 **** 0.06
12538 H 3.0693915096628643 58.17989509892004 83.31739128663689 H 0.0 **** 0.06
12539 H 3.188448880269277 59.74069839530023 82.46913402550294 H 0.0 **** 0.06
12540 H 3.310156076304395 58.218598676267504 81.55316524111504 H 0.0 **** 0.06
12541 C 44.50181110592797 88.59188181755508 77.73790483430886 C 0.0 **** -0.24
12542 H 43.59540457562781 88.02828141654831 77.96160677661172 H 0.0 **** 0.06
12543 H 44.80481752134391 89.15531666779417 78.62028399094746 H 0.0 **** 0.06
12544 H 44.30803013550579 89.27971057537586 76.91553376181005 H 0.0 **** 0.06
12545 H 45.297073391612784 87.9018704244598 77.4555382438281 H 0.0 **** 0.06
12546 C 1.105339653669489 70.96352930805116 51.56532466505743 C 0.0 **** -0.24
12547 H 1.7391268760663934 70.20585374845473 52.02605691533192 H 0.0 **** 0.06
12548 H 0.059888618990100895 70.6715454909615 51.66605850268462 H 0.0 **** 0.06
12549 H 1.3581070370454427 71.05581900499021 50.509400458346406 H 0.0 **** 0.06
12550 H 1.2642018127990866 71.9206028004232 52.062768011033185 H 0.0 **** 0.06
12551 C 66.13145750923715 103.37866944905097 62.34086506129509 C 0.0 **** -0.24
12552 H 67.04537412347729 103.53322532108258 62.9150023682314 H 0.0 **** 0.06
12553 H 65.49206254157134 102.66559631382617 62.861608285990116 H 0.0 **** 0.06
12554 H 66.3843619285163 102.98966025200734 61.3546217348258 H 0.0 **** 0.06
12555 H 65.60645083093151 104.32766055121347 62.233228790964176 H 0.0 **** 0.06
12556 C 21.486317242240446 38.293469012047154 68.71129236620409 C 0.0 **** -0.24
12557 H 20.967874753267722 39.21473096075641 68.97463140165398 H 0.0 **** 0.06
12558 H 22.23766393486224 38.50336707786312 67.9504089155819 H 0.0 **** 0.06
12559 H 20.767360647040334 37.57139493741067 68.32249907373776 H 0.0 **** 0.06
12560 H 21.970446858673 37.882866799553426 69.5976946878824 H 0.0 **** 0.06
12561 C 27.03969702881949 19.390091136655258 22.845428384401316 C 0.0 **** -0.24
12562 H 26.157659271075516 19.721059409711813 23.395158491530438 H 0.0 **** 0.06
12563 H 26.737973177820407 18.699639042859758 22.056939066356648 H 0.0 **** 0.06
12564 H 27.724051040450206 18.88628634328819 23.52803297297882 H 0.0 **** 0.06
12565 H 27.53597695821753 20.253334996926014 22.40268585832726 H 0.0 **** 0.06
12566 C 83.40617317481141 10.582150350797317 83.3692208223711 C 0.0 **** -0.24
12567 H 83.05938294199396 11.563770566934362 83.6906690185032 H 0.0 **** 0.06
12568 H 83.96365595287861 10.681400200406276 82.437617285928 H 0.0 **** 0.06
12569 H 82.55006625303824 9.926603183380692 83.21300142134548 H 0.0 **** 0.06
12570 H 84.05335559297467 10.157006589541385 84.13695284289281 H 0.0 **** 0.06
12571 C 75.24243075568457 22.61143377685542 112.52410830928477 C 0.0 **** -0.24
12572 H 75.52214460765033 23.385004189840288 111.80788993085571 H 0.0 **** 0.06
12573 H 74.53269234099473 23.022528288329255 113.24278866438658 H 0.0 **** 0.06
12574 H 76.13201478174649 22.263627045997993 113.04884102469384 H 0.0 **** 0.06
12575 H 74.78257906245047 21.77663455478401 111.9949964143143 H 0.0 **** 0.06
12576 C 106.07280404648947 27.52170395761948 43.11833793747317 C 0.0 **** -0.24
12577 H 105.87050704565206 26.464181202621347 43.288943530332546 H 0.0 **** 0.06
12578 H 106.49897366896232 27.960777549958493 44.02063476459102 H 0.0 **** 0.06
12579 H 105.14273969191404 28.033613934511834 42.868621598110394 H 0.0 **** 0.06
12580 H 106.77783071057434 27.62784847059612 42.29393242714667 H 0.0 **** 0.06
12581 C 120.16366521676548 8.00316531269592 87.21127284912191 C 0.0 **** -0.24
12582 H 120.90493286138977 8.790284852678166 87.07418236368336 H 0.0 **** 0.06
12583 H 120.56861845653322 7.231745156078944 87.86575393068841 H 0.0 **** 0.06
12584 H 119.91581356659755 7.565742199177322 86.24403952802072 H 0.0 **** 0.06
12585 H 119.26409086693297 8.425786330545389 87.65945942214582 H 0.0 **** 0.06
12586 C 86.59517463694009 106.98490680790691 122.42098972740843 C 0.0 **** -0.24
12587 H 85.74499493513504 107.09796229993137 121.74738843359691 H 0.0 **** 0.06
12588 H 87.04050165877253 107.96106040623576 122.61024522816257 H 0.0 **** 0.06
12589 H 87.33551957415293 106.32930014047975 121.96277802178082 H 0.0 **** 0.06
12590 H 86.25732532792392 106.55011426577799 123.3608960614549 H 0.0 **** 0.06
12591 C 117.27676040421318 58.85998246950078 47.217935021013886 C 0.0 **** -0.24
12592 H 117.25798335244374 58.18983586790283 48.07727060811783 H 0.0 **** 0.06
12593 H 116.45378877276234 59.57096106380108 47.2939538570391 H 0.0 **** 0.06
12594 H 117.17214381704031 58.27909708477189 46.30141646616801 H 0.0 **** 0.06
12595 H 118.22312567460631 59.40003586152706 47.199099152730724 H 0.0 **** 0.06
12596 C 82.88743178895743 91.9314429747647 111.72567671973428 C 0.0 **** -0.24
12597 H 81.88468463687514 91.50451223011459 111.69206067908817 H 0.0 **** 0.06
12598 H 83.4786599849445 91.41029945884539 112.47879980108249 H 0.0 **** 0.06
12599 H 82.82238663684865 92.9893510809713 111.98238538393838 H 0.0 **** 0.06
12600 H 83.36181935467795 91.822618184383 110.7499557794691 H 0.0 **** 0.06
12601 C 14.978305565693518 41.83489346459798 84.55551214052008 C 0.0 **** -0.24
12602 H 15.177791382873266 42.410513261306534 85.45991084535987 H 0.0 **** 0.06
12603 H 13.911184917957428 41.62330157458263 84.48765122829617 H 0.0 **** 0.06
12604 H 15.532992142472509 40.89628358996114 84.59282322051395 H 0.0 **** 0.06
12605 H 15.292218788088775 42.40845159984245 83.68340133300966 H 0.0 **** 0.06
12606 C 65.92884612516474 46.806555488885095 8.92145476570255 C 0.0 **** -0.24
12607 H 65.64037590647553 47.856937934647846 8.87706582179868 H 0.0 **** 0.06
12608 H 67.00385834711759 46.73244602098836 9.08910701907081 H 0.0 **** 0.06
12609 H 65.67352250589073 46.319478576198975 7.980284937920715 H 0.0 **** 0.06
12610 H 65.39825954749949 46.31826587017852 9.73847851405742 H 0.0 **** 0.06
12611 C 64.16325405718418 22.79569993798276 73.33155003338658 C 0.0 **** -0.24
12612 H 64.17549386683929 22.396340010722326 74.34585795592676 H 0.0 **** 0.06
12613 H 64.84765431983938 23.642014028107525 73.26547812236925 H 0.0 **** 0.06
12614 H 63.15455881856086 23.12260617854119 73.08258449998124 H 0.0 **** 0.06
12615 H 64.47668630898966 22.01982589251449 72.63205773777128 H 0.0 **** 0.06
12616 C 44.46134864761675 81.84658482364183 0.7625904312114358 C 0.0 **** -0.24
12617 H 45.24462814786112 82.60403994106508 0.7323632788321248 H 0.0 **** 0.06
12618 H 44.243843853441795 81.59082802223115 1.7997658497837392 H 0.0 **** 0.06
12619 H 44.79732188589067 80.9565962331987 0.23103895952033326 H 0.0 **** 0.06
12620 H 43.56060148810903 82.23585506328565 0.28699817535394345 H 0.0 **** 0.06
12621 C 36.377670486009606 68.08874400508938 92.86165984854432 C 0.0 **** -0.24
12622 H 36.3686668850422 67.53925041763785 91.91980131657621 H 0.0 **** 0.06
12623 H 37.379754473508115 68.05790033532668 93.28990169517635 H 0.0 **** 0.06
12624 H 35.671476310749426 67.63163079244589 93.55536731361694 H 0.0 **** 0.06
12625 H 36.0905851791633 69.12400335223731 92.68116955618008 H 0.0 **** 0.06
12626 C 7.064934383045966 110.23304424773988 0.4703907917331378 C 0.0 **** -0.24
12627 H 7.813056147352597 110.9508595908913 0.13605175384685708 H 0.0 **** 0.06
12628 H 6.657680638110548 109.70460569142335 -0.39228287262940853 H 0.0 **** 0.06
12629 H 6.26241334479397 110.75900020716927 0.9870908929896416 H 0.0 **** 0.06
12630 H 7.526477267157389 109.51680828162813 1.1502885218254448 H 0.0 **** 0.06
12631 C 102.85433441279298 115.62490963585597 97.1721047333782 C 0.0 **** -0.24
12632 H 102.92044815812721 114.63057875935428 97.61272672564382 H 0.0 **** 0.06
12633 H 102.18072082636748 115.59822987707196 96.31498998732934 H 0.0 **** 0.06
12634 H 103.84380275067328 115.94434667481843 96.84666805099056 H 0.0 **** 0.06
12635 H 102.47236591600367 116.32648323217943 97.91403416954887 H 0.0 **** 0.06
12636 C 81.90252799367886 89.29271666578836 2.5557811268821524 C 0.0 **** -0.24
12637 H 81.42847441553448 89.98644121553264 3.2498683992315733 H 0.0 **** 0.06
12638 H 81.95731133760165 89.74880747108233 1.5669870616334691 H 0.0 **** 0.06
12639 H 81.31498697110715 88.37620190018043 2.5008999428813183 H 0.0 **** 0.06
12640 H 82.90801660408647 89.05983717784625 2.9043330338296016 H 0.0 **** 0.06
12641 C 120.22005456472937 112.91998983338469 6.932884810944163 C 0.0 **** -0.24
12642 H 119.59067468469513 112.27504944346076 7.546397310038248 H 0.0 **** 0.06
12643 H 119.97972656980335 113.96301882226348 7.138738368299347 H 0.0 **** 0.06
12644 H 120.04024117651394 112.70685825508849 5.8796409037564885 H 0.0 **** 0.06
12645 H 121.2676167759324 112.73441221788491 7.167644276979324 H 0.0 **** 0.06
12646 C 87.15280172832794 25.531901684901264 88.46880270988072 C 0.0 **** -0.24
12647 H 87.56186519010762 25.37518188923969 89.46661765574234 H 0.0 **** 0.06
12648 H 86.12814381575802 25.89628631682737 88.54858216143558 H 0.0 **** 0.06
12649 H 87.16165226827255 24.589310072404437 87.92101036277487 H 0.0 **** 0.06
12650 H 87.75988060463288 26.265472664650055 87.9387776768726 H 0.0 **** 0.06
12651 C 28.96208879761474 92.07939695780841 60.39282616974275 C 0.0 **** -0.24
12652 H 28.597790931998844 91.28028409324799 59.747077447952066 H 0.0 **** 0.06
12653 H 30.0339918420768 92.20770503113074 60.24298092486818 H 0.0 **** 0.06
12654 H 28.768889814126425 91.82017223225473 61.43460133432397 H 0.0 **** 0.06
12655 H 28.446076795796458 93.0079074475903 60.14867337641368 H 0.0 **** 0.06
12656 C 82.24042110677459 83.40332089303097 119.12776234475331 C 0.0 **** -0.24
12657 H 81.54991467493679 82.77197518576284 118.56912817234073 H 0.0 **** 0.06
12658 H 81.87695295456203 83.52705211942086 120.14797957728223 H 0.0 **** 0.06
12659 H 82.31127996496005 84.37840535784261 118.64668961677017 H 0.0 **** 0.06
12660 H 83.22570636058495 82.93635328924258 119.14704945200609 H 0.0 **** 0.06
12661 C 24.632495465515774 88.945887076111 85.00544962941748 C 0.0 **** -0.24
12662 H 25.28560059815365 88.36089164622555 85.65344868047008 H 0.0 **** 0.06
12663 H 23.667814801421883 89.08766713753315 85.49472403572962 H 0.0 **** 0.06
12664 H 24.489406489892843 88.41852695765047 84.06270389626687 H 0.0 **** 0.06
12665 H 25.08921463866338 89.91718024077514 84.81298679469677 H 0.0 **** 0.06
12666 C 15.51999928873294 27.68609748032378 30.763846705666793 C 0.0 **** -0.24
12667 H 14.889115770382205 26.829677036228674 30.522258607522645 H 0.0 **** 0.06
12668 H 16.29185944593264 27.380773392855986 31.470144654654916 H 0.0 **** 0.06
12669 H 14.909862401630079 28.47130427120632 31.208567855050745 H 0.0 **** 0.06
12670 H 15.987306001029058 28.060390648527402 29.853180053753988 H 0.0 **** 0.06
12671 C 54.16169071533679 65.75377227881641 62.27300123566003 C 0.0 **** -0.24
12672 H 53.690243899996474 65.24825653881018 63.11511784467734 H 0.0 **** 0.06
12673 H 55.178474203649216 66.03935604820246 62.54392003018981 H 0.0 **** 0.06
12674 H 53.58919936596148 66.64465404032448 62.01612381071418 H 0.0 **** 0.06
12675 H 54.19005338237412 65.0804497729684 61.41588857840331 H 0.0 **** 0.06
12676 C 74.051437054236 88.1699731721639 29.166062018459286 C 0.0 **** -0.24
12677 H 73.66221801115765 87.15172429521942 29.167927532957037 H 0.0 **** 0.06
12678 H 73.24494877923357 88.86647840033072 28.93387479024625 H 0.0 **** 0.06
12679 H 74.8353382012842 88.25820424912564 28.41463210618889 H 0.0 **** 0.06
12680 H 74.46161334477918 88.40409288600483 30.148801107176155 H 0.0 **** 0.06
12681 C 36.94820835109413 73.06750889865299 7.648460640188205 C 0.0 **** -0.24
12682 H 36.35877546983679 73.60340541351349 6.904647156372846 H 0.0 **** 0.06
12683 H 36.281218450091 72.51704611505133 8.312746692760584 H 0.0 **** 0.06
12684 H 37.53447746886424 73.7793407359485 8.23010803996101 H 0.0 **** 0.06
12685 H 37.61778585636836 72.36914587698067 7.145659683803103 H 0.0 **** 0.06
12686 C 112.64160109287566 79.21530899456386 28.993965980798237 C 0.0 **** -0.24
12687 H 113.27962945460152 78.36310272348626 29.227176117524294 H 0.0 **** 0.06
12688 H 111.59690061328318 78.93271803658402 29.127487582590163 H 0.0 **** 0.06
12689 H 112.80740669733818 79.52169474188364 27.961883668383763 H 0.0 **** 0.06
12690 H 112.88238599344399 80.04266627538013 29.662124130584345 H 0.0 **** 0.06
12691 C 65.1930101226412 93.96657240889465 82.30264678913795 C 0.0 **** -0.24
12692 H 65.26560967157776 93.46190197646345 83.26624358631392 H 0.0 **** 0.06
12693 H 65.26555701377171 93.23063491772069 81.5015140312587 H 0.0 **** 0.06
12694 H 66.00434507593899 94.6877965529784 82.20891852788759 H 0.0 **** 0.06
12695 H 64.2364046050574 94.48433337283296 82.23507345560887 H 0.0 **** 0.06
12696 C 91.53244443656229 13.287351754981557 60.475246689699674 C 0.0 **** -0.24
12697 H 91.92846051372288 12.336477781766462 60.83102138241563 H 0.0 **** 0.06
12698 H 91.7462863001212 13.393946038413958 59.41140127626048 H 0.0 **** 0.06
12699 H 92.00172691572055 14.103602498269993 61.0245466007664 H 0.0 **** 0.06
12700 H 90.45539532977028 13.314589183943212 60.63400416924949 H 0.0 **** 0.06
12701 C 30.45192886138517 58.863479575236596 38.59052406980868 C 0.0 **** -0.24
12702 H 31.209302534216107 59.479157328699756 39.076867353624664 H 0.0 **** 0.06
12703 H 30.19710839665393 59.296550249910695 37.62353027484011 H 0.0 **** 0.06
12704 H 29.560691373984184 58.8231927197516 39.21780190874824 H 0.0 **** 0.06
12705 H 30.840850211999566 57.85524231406393 38.44670635241141 H 0.0 **** 0.06
12706 C 51.10054067009844 76.38060066951454 69.46863842638513 C 0.0 **** -0.24
12707 H 51.95897032762019 75.8688977189114 69.9056720730225 H 0.0 **** 0.06
12708 H 50.76664644557712 77.16899441933697 70.14353595373642 H 0.0 **** 0.06
12709 H 50.29150322011634 75.66682251264092 69.31563902021733 H 0.0 **** 0.06
12710 H 51.38766570547733 76.81741456499083 68.51216545705817 H 0.0 **** 0.06
12711 C 43.57873634623462 13.536390583135173 14.350828212822496 C 0.0 **** -0.24
12712 H 44.66204808007234 13.467759322220672 14.445173825997617 H 0.0 **** 0.06
12713 H 43.32473056740059 13.950127309904786 13.374582481883785 H 0.0 **** 0.06
12714 H 43.18549251858002 14.184370147829625 15.134521720847914 H 0.0 **** 0.06
12715 H 43.14167545601185 12.541952051448163 14.448621702402985 H 0.0 **** 0.06
12716 C 92.18221845090854 86.77909279867757 108.06557224779033 C 0.0 **** -0.24
12717 H 91.1373413536477 86.68122843080383 107.76936762805661 H 0.0 **** 0.06
12718 H 92.24630044289452 87.37350619793611 108.97762925225179 H 0.0 **** 0.06
12719 H 92.73925232010278 87.27278074112516 107.26946975780395 H 0.0 **** 0.06
12720 H 92.60348179331531 85.78988658510127 108.24451907138287 H 0.0 **** 0.06
12721 C 25.27908599169163 58.054772427879215 24.216430874986003 C 0.0 **** -0.24
12722 H 26.087302328348414 58.58184378868344 23.708986431608892 H 0.0 **** 0.06
12723 H 25.168249330762336 57.05898193021565 23.78637708134991 H 0.0 **** 0.06
12724 H 24.34909114300774 58.609991668988954 24.09152723999884 H 0.0 **** 0.06
12725 H 25.51085181722263 57.96868410521657 25.27777958407279 H 0.0 **** 0.06
12726 C 104.28831227641479 35.42081543462132 68.2994706438562 C 0.0 **** -0.24
12727 H 104.75623098101278 34.44245176262933 68.1876433324678 H 0.0 **** 0.06
12728 H 104.27449060371748 35.69846580432949 69.35318261262951 H 0.0 **** 0.06
12729 H 103.26746438097484 35.379751002890885 67.92063037035442 H 0.0 **** 0.06
12730 H 104.85535478326119 36.16119118291289 67.73545181598519 H 0.0 **** 0.06
12731 C 14.180118929038144 122.9380993602526 57.63827783496774 C 0.0 **** -0.24
12732 H 13.843678218161415 122.6591109504613 58.637437926799095 H 0.0 **** 0.06
12733 H 13.737313028458175 122.26348254574596 56.90516268437182 H 0.0 **** 0.06
12734 H 15.266844432696985 122.86830493479872 57.588869994372686 H 0.0 **** 0.06
12735 H 13.8722230643084 123.96147199677242 57.424611573739185 H 0.0 **** 0.06
12736 C 40.3756220226017 79.63854318023198 122.23108525238085 C 0.0 **** -0.24
12737 H 40.36225395812545 79.86053684554184 121.16426765533 H 0.0 **** 0.06
12738 H 40.130749330262745 78.5877943792508 122.38558126607201 H 0.0 **** 0.06
12739 H 39.641598344675 80.26219327102586 122.74155123798795 H 0.0 **** 0.06
12740 H 41.36788645734356 79.8436482251094 122.63294085013338 H 0.0 **** 0.06
12741 C 82.74196176532696 49.94470222323358 21.418349061621775 C 0.0 **** -0.24
12742 H 83.18405235591827 48.96618166077732 21.232539772822342 H 0.0 **** 0.06
12743 H 81.66788236253842 49.89804193161915 21.23495049705477 H 0.0 **** 0.06
12744 H 83.19309874549413 50.67929348223562 20.752526467545877 H 0.0 **** 0.06
12745 H 82.92190824392931 50.233465467954744 22.454298773823645 H 0.0 **** 0.06
12746 C 116.10882142522055 72.98155951266227 22.870267518493506 C 0.0 **** -0.24
12747 H 115.66944967312605 72.94574314806829 21.873535185997937 H 0.0 **** 0.06
12748 H 115.54429944700553 72.33166104486423 23.53958185027131 H 0.0 **** 0.06
12749 H 116.0781800693745 74.00428804190358 23.244037621876096 H 0.0 **** 0.06
12750 H 117.14328660069805 72.64343343167212 22.822589567084968 H 0.0 **** 0.06
12751 C 75.50546645221755 121.82965310976132 42.49720538899561 C 0.0 **** -0.24
12752 H 75.75781542367545 122.74653868546918 43.02985024532481 H 0.0 **** 0.06
12753 H 75.45753747820591 121.00012286345194 43.20427484264593 H 0.0 **** 0.06
12754 H 76.26883431364506 121.62481799670451 41.74688761085632 H 0.0 **** 0.06
12755 H 74.53759588978515 121.94764606569532 42.00998373242888 H 0.0 **** 0.06
12756 C 75.97442210089719 96.18152409882862 11.59578417142258 C 0.0 **** -0.24
12757 H 75.67297044013743 95.2235446120257 12.019244790838716 H 0.0 **** 0.06
12758 H 76.17802814064316 96.06022741123058 10.53124931011099 H 0.0 **** 0.06
12759 H 76.87402577757283 96.53440899208806 12.100346555989784 H 0.0 **** 0.06
12760 H 75.1724175394407 96.90747209533424 11.731434177691781 H 0.0 **** 0.06
12761 C 66.73387633522368 38.83587782213425 61.84832215498395 C 0.0 **** -0.24
12762 H 66.13388908908321 39.669546669295045 62.21419686720117 H 0.0 **** 0.06
12763 H 66.07634176217718 38.06027253071656 61.45505195566716 H 0.0 **** 0.06
12764 H 67.32797740069277 38.42889679240929 62.66632952189228 H 0.0 **** 0.06
12765 H 67.3969627287566 39.18551898862822 61.057106515257544 H 0.0 **** 0.06
12766 C 109.03203756710839 121.44236466129361 75.24801448800079 C 0.0 **** -0.24
12767 H 109.60706193363552 120.60587501106062 75.64481385134454 H 0.0 **** 0.06
12768 H 108.91790868333277 121.32422444807816 74.1693475682367 H 0.0 **** 0.06
12769 H 109.55432157616374 122.3754028582337 75.45901408774537 H 0.0 **** 0.06
12770 H 108.04824811343703 121.46232362899391 75.71716123496611 H 0.0 **** 0.06
12771 C 49.055200350309434 86.19946188536778 8.892571312578411 C 0.0 **** -0.24
12772 H 49.797575453278206 85.43151547455159 8.673744307218897 H 0.0 **** 0.06
12773 H 48.862311051085 86.22262288286947 9.966079628328544 H 0.0 **** 0.06
12774 H 48.13069918517094 85.971753319355 8.362255279571059 H 0.0 **** 0.06
12775 H 49.43040566279848 87.16968818435379 8.569112603557073 H 0.0 **** 0.06
12776 C 32.39434902737446 120.54252492340049 10.379468431270936 C 0.0 **** -0.24
12777 H 32.87383484673063 120.89475415386579 9.466396362777118 H 0.0 **** 0.06
12778 H 31.851384780558476 121.36608670803699 10.845097699752728 H 0.0 **** 0.06
12779 H 33.15260542203532 120.17068391254566 11.067592792321534 H 0.0 **** 0.06
12780 H 31.698340649003853 119.73971700296445 10.137003038776186 H 0.0 **** 0.06
12781 C 101.6041068559474 18.495265542358027 24.464805782970387 C 0.0 **** -0.24
12782 H 101.60897247172794 17.555000560635335 25.015506935129864 H 0.0 **** 0.06
12783 H 102.34195756898907 18.450278812937995 23.663278946936458 H 0.0 **** 0.06
12784 H 101.85241979959996 19.31354795080921 25.14148838581289 H 0.0 **** 0.06
12785 H 100.61447108301638 18.662359817905383 24.03915537805662 H 0.0 **** 0.06
12786 C 68.33740149457658 97.05896987277424 18.621657653672344 C 0.0 **** -0.24
12787 H 68.14795346016496 97.81592134962602 17.861087755675157 H 0.0 **** 0.06
12788 H 68.15482559691961 96.06940794323435 18.202771114706422 H 0.0 **** 0.06
12789 H 67.67312450302931 97.22263411717648 19.46979016800151 H 0.0 **** 0.06
12790 H 69.37343034317828 97.1291786584693 18.95355775398707 H 0.0 **** 0.06
12791 C 123.12093687988207 78.06068430220662 5.126212000073071 C 0.0 **** -0.24
12792 H 123.31651553654783 78.90160138380689 5.791581941072195 H 0.0 **** 0.06
12793 H 123.75911676027903 77.22149623007222 5.404171642464643 H 0.0 **** 0.06
12794 H 123.33216229283772 78.35383651816817 4.097669667886169 H 0.0 **** 0.06
12795 H 122.07468620603811 77.76602603328914 5.212012803621516 H 0.0 **** 0.06
12796 C 98.36178951794439 36.76809702307003 17.479981724116044 C 0.0 **** -0.24
12797 H 98.4901768872728 35.71879525001681 17.744260250969376 H 0.0 **** 0.06
12798 H 99.30541055888315 37.16716666060033 17.10824599834183 H 0.0 **** 0.06
12799 H 98.05186612087465 37.328849993508896 18.361359202468407 H 0.0 **** 0.06
12800 H 97.59920655848813 36.856253413571324 16.70611068057991 H 0.0 **** 0.06
12801 C 111.34482613214715 12.111068866866674 33.57518039149046 C 0.0 **** -0.24
12802 H 110.36161573753888 12.569808950270101 33.47947006534066 H 0.0 **** 0.06
12803 H 111.67719562454953 12.177644300643976 34.611441446110575 H 0.0 **** 0.06
12804 H 112.0539744226789 12.633331466088237 32.93183346805327 H 0.0 **** 0.06
12805 H 111.28792672462556 11.063503696355895 33.27810898625317 H 0.0 **** 0.06
12806 C 14.188177945370871 68.69849494024345 60.2125397711841 C 0.0 **** -0.24
12807 H 13.187988059749575 68.6211657150003 59.784487005290416 H 0.0 **** 0.06
12808 H 14.543863401571095 69.72460827922782 60.12029569490015 H 0.0 **** 0.06
12809 H 14.86395254414471 68.0293876544606 59.67973131843857 H 0.0 **** 0.06
12810 H 14.153855674890533 68.41850793434463 61.26487759976361 H 0.0 **** 0.06
12811 C 65.30659152543612 112.01617859632339 109.67358951927181 C 0.0 **** -0.24
12812 H 64.52027167414249 112.76544398212732 109.76651525581325 H 0.0 **** 0.06
12813 H 64.93455220444037 111.1689799509127 109.09665022004377 H 0.0 **** 0.06
12814 H 65.60385168121377 111.67785049119763 110.6661877254813 H 0.0 **** 0.06
12815 H 66.16541271241834 112.4530024085638 109.16430098145435 H 0.0 **** 0.06
12816 C 25.1114561193137 61.66300737136524 79.85030732429865 C 0.0 **** -0.24
12817 H 26.063071225400414 61.14125678169823 79.94537914495018 H 0.0 **** 0.06
12818 H 25.29331373008663 62.704291423349915 79.58132010313287 H 0.0 **** 0.06
12819 H 24.57734662922533 61.62050296685442 80.7991450849988 H 0.0 **** 0.06
12820 H 24.512406196423008 61.18593058640198 79.07400667893049 H 0.0 **** 0.06
12821 C 66.20425863142086 48.108521422472066 21.453602838297684 C 0.0 **** -0.24
12822 H 66.36743164908687 47.157975348869584 21.95950928044411 H 0.0 **** 0.06
12823 H 65.20153594321556 48.12576247967621 21.026740265536233 H 0.0 **** 0.06
12824 H 66.93943952521687 48.22775089864979 20.658005534435517 H 0.0 **** 0.06
12825 H 66.3084490036562 48.9239831803507 22.169940217961653 H 0.0 **** 0.06
12826 C 83.35517634359425 94.71298006511228 76.08881936563326 C 0.0 **** -0.24
12827 H 83.27255800457235 94.53095274266258 77.16106703073466 H 0.0 **** 0.06
12828 H 82.91842865842273 93.87509104963306 75.5444047967428 H 0.0 **** 0.06
12829 H 84.40501803195664 94.81488806275695 75.81776257261272 H 0.0 **** 0.06
12830 H 82.82282894915699 95.62871101927263 75.83356317036869 H 0.0 **** 0.06
12831 C 99.37264204013289 89.54981991313477 69.64018733580576 C 0.0 **** -0.24
12832 H 98.60509635178389 88.95312021264787 70.13224500280079 H 0.0 **** 0.06
12833 H 99.46575148147772 90.51105834308757 70.14813236900261 H 0.0 **** 0.06
12834 H 99.09415351967736 89.71405608779253 68.59884139214013 H 0.0 **** 0.06
12835 H 100.32584007774526 89.02331733393565 69.68240361112437 H 0.0 **** 0.06
12836 C 60.1558370872572 33.945733594932136 9.869640522121777 C 0.0 **** -0.24
12837 H 59.584169063677365 34.43662499888888 10.657962200025061 H 0.0 **** 0.06
12838 H 59.513832306819324 33.781428577726096 9.004940363489034 H 0.0 **** 0.06
12839 H 60.527992207274764 32.98824846854559 10.233254979705077 H 0.0 **** 0.06
12840 H 60.99669025337627 34.57780984467927 9.584447143531264 H 0.0 **** 0.06
12841 C 33.30359275430055 124.0526484144494 95.33201465578735 C 0.0 **** -0.24
12842 H 33.90691268738476 123.46197234974504 96.02222811230143 H 0.0 **** 0.06
12843 H 32.709986341920484 124.77348582774155 95.89348550167183 H 0.0 **** 0.06
12844 H 32.641104629211355 123.39225632589441 94.77292570668591 H 0.0 **** 0.06
12845 H 33.95840874075077 124.5802651158317 94.63943160705097 H 0.0 **** 0.06
12846 C 69.35670899728171 73.5701178105052 6.800950634593676 C 0.0 **** -0.24
12847 H 69.5299803475827 73.10975775466991 5.828045507425031 H 0.0 **** 0.06
12848 H 69.59198089304465 74.63260717690056 6.747153456986155 H 0.0 **** 0.06
12849 H 69.99429590734394 73.09321622603781 7.546058394203158 H 0.0 **** 0.06
12850 H 68.3113684538514 73.44199601651434 7.082508228381187 H 0.0 **** 0.06
12851 C 112.56295954588347 32.735295030637815 8.520161485324081 C 0.0 **** -0.24
12852 H 112.7569065951171 32.70922513056601 9.591806265656942 H 0.0 **** 0.06
12853 H 111.58103949839538 32.30561873275863 8.318082075000405 H 0.0 **** 0.06
12854 H 113.32598618798812 32.15900866702691 7.998082935525645 H 0.0 **** 0.06
12855 H 112.58555960692726 33.768030965992125 8.172652612326544 H 0.0 **** 0.06
12856 C 63.84718085374854 74.48538653706481 65.29219765015341 C 0.0 **** -0.24
12857 H 63.07713279202973 75.0711471020565 65.79318686696968 H 0.0 **** 0.06
12858 H 64.72991015237461 74.42385481176723 65.92969557863034 H 0.0 **** 0.06
12859 H 64.11269984098 74.96399968427272 64.35032995571095 H 0.0 **** 0.06
12860 H 63.46959939770527 73.48153207681793 65.0963476998013 H 0.0 **** 0.06
12861 C 52.676259342305244 103.38989356387411 60.886495355107655 C 0.0 **** -0.24
12862 H 51.97064218712072 102.70365630839306 60.41844134618957 H 0.0 **** 0.06
12863 H 52.45321668052247 104.41009307521804 60.57183726518116 H 0.0 **** 0.06
12864 H 53.69059094373347 103.13017940491281 60.58283158041026 H 0.0 **** 0.06
12865 H 52.59046484629991 103.31584840036703 61.97064771160862 H 0.0 **** 0.06
12866 C 60.99254082294553 92.04461486736241 106.81594442431654 C 0.0 **** -0.24
12867 H 61.95312980966574 91.84770280613242 107.29004783925708 H 0.0 **** 0.06
12868 H 61.11504833332563 92.80912449706233 106.04841679044105 H 0.0 **** 0.06
12869 H 60.28224336323157 92.39256822994886 107.56595154653365 H 0.0 **** 0.06
12870 H 60.61834461967743 91.12737146925883 106.35893285926633 H 0.0 **** 0.06
12871 C 77.8466391043352 33.59223542061264 77.73976231501831 C 0.0 **** -0.24
12872 H 77.67413104892049 34.644237435051 77.96577649568059 H 0.0 **** 0.06
12873 H 77.91625166896623 33.459240946507805 76.66034754554198 H 0.0 **** 0.06
12874 H 77.02002692793153 32.99677098261239 78.12738083956015 H 0.0 **** 0.06
12875 H 78.77682804786306 33.2680639265736 78.20731672262815 H 0.0 **** 0.06
12876 C 20.7770955544716 84.81122238334902 52.609380374360654 C 0.0 **** -0.24
12877 H 21.2064711314367 84.27074160581398 53.45299275776077 H 0.0 **** 0.06
12878 H 21.279903465397183 84.50738424484675 51.69113132930224 H 0.0 **** 0.06
12879 H 20.909280845083515 85.88220810460751 52.75899746801966 H 0.0 **** 0.06
12880 H 19.713624887071703 84.58350660541237 52.53470516348753 H 0.0 **** 0.06
12881 C 93.44318924152219 56.11799187173203 32.690947834029345 C 0.0 **** -0.24
12882 H 93.2091759504122 55.560527807453155 31.784382742370695 H 0.0 **** 0.06
12883 H 93.26026034288677 55.487353964543715 33.56141586728151 H 0.0 **** 0.06
12884 H 92.81161369734411 57.004498242536926 32.7456056393992 H 0.0 **** 0.06
12885 H 94.48996728311778 56.41829888529314 32.67294680306985 H 0.0 **** 0.06
12886 C 32.87621225601825 3.7236208511360616 54.53450796151468 C 0.0 **** -0.24
12887 H 32.15592260270981 4.541637933413838 54.489168369717206 H 0.0 **** 0.06
12888 H 33.46355560284542 3.706112809923411 53.61632607263894 H 0.0 **** 0.06
12889 H 32.34427468053167 2.7788475351424182 54.645108537046085 H 0.0 **** 0.06
12890 H 33.53868246870422 3.870562142309936 55.38752096296059 H 0.0 **** 0.06
12891 C 101.12236849623845 86.55586571612163 24.241708123348417 C 0.0 **** -0.24
12892 H 101.92387739501714 86.28767223179238 23.554251662973854 H 0.0 **** 0.06
12893 H 101.14919126166333 87.62983118838667 24.4297918426563 H 0.0 **** 0.06
12894 H 101.25461529630606 86.01935401915318 25.180713253422766 H 0.0 **** 0.06
12895 H 100.16125156942364 86.28738031846981 23.802406871869266 H 0.0 **** 0.06
12896 C 46.160742936516804 36.8556109930673 67.4253232195203 C 0.0 **** -0.24
12897 H 45.64415848716961 37.547061167468854 68.0899267048913 H 0.0 **** 0.06
12898 H 46.45215049489289 37.376852317111826 66.51276697903393 H 0.0 **** 0.06
12899 H 45.49661530661118 36.02812929484358 67.17419321759667 H 0.0 **** 0.06
12900 H 47.04993101467064 36.469019708602616 67.92265149358775 H 0.0 **** 0.06
12901 C 89.62249399618584 5.068786894172973 65.75655796628493 C 0.0 **** -0.24
12902 H 89.71128781519603 5.1722138296212705 66.83824195971357 H 0.0 **** 0.06
12903 H 89.22303168231153 4.082315712826102 65.5185469542566 H 0.0 **** 0.06
12904 H 90.60421233628891 5.183214448115777 65.29862231526113 H 0.0 **** 0.06
12905 H 88.95022567300522 5.835527094317342 65.37326903943901 H 0.0 **** 0.06
12906 C 88.76538015591319 68.35793993417829 20.35410175887762 C 0.0 **** -0.24
12907 H 87.98199451243406 68.04462052606974 19.66362611351198 H 0.0 **** 0.06
12908 H 88.67004806489155 69.42589251153751 20.55136253687266 H 0.0 **** 0.06
12909 H 89.74127049845632 68.15515245261625 19.911909455855266 H 0.0 **** 0.06
12910 H 88.667428450438 67.80460962492512 21.288029343477604 H 0.0 **** 0.06
12911 C 60.85618660927338 11.094202566203592 100.14834039212161 C 0.0 **** -0.24
12912 H 60.36572847888971 10.138421061569062 99.96514590708756 H 0.0 **** 0.06
12913 H 61.098857677079195 11.56592750416803 99.19526162707481 H 0.0 **** 0.06
12914 H 61.771487033127926 10.929459753333447 100.71681171530054 H 0.0 **** 0.06
12915 H 60.18774313050193 11.742149391720403 100.71550346040749 H 0.0 **** 0.06
12916 C 9.319147473552512 3.1539086257877216 9.093470488690247 C 0.0 **** -0.24
12917 H 9.719540943379496 3.4683683453225598 8.128766930579623 H 0.0 **** 0.06
12918 H 8.35078282795629 3.6270543855890907 9.255771756173708 H 0.0 **** 0.06
12919 H 10.007259211375288 3.4498479538475806 9.885450203429091 H 0.0 **** 0.06
12920 H 9.200865895772218 2.0700785910759407 9.100658319830778 H 0.0 **** 0.06
12921 C 95.98260468270496 3.691213578671471 30.132524867060205 C 0.0 **** -0.24
12922 H 95.32701222994848 4.4533514042011895 30.5542525039182 H 0.0 **** 0.06
12923 H 96.9518509802344 3.730752020209149 30.630966544152436 H 0.0 **** 0.06
12924 H 96.11339793669386 3.8757149394500665 29.066416026471416 H 0.0 **** 0.06
12925 H 95.53750430268865 2.707838123912655 30.279313824216274 H 0.0 **** 0.06
12926 C 105.62447493618964 51.79542262558079 111.49982523528294 C 0.0 **** -0.24
12927 H 105.59152042536547 52.778396098498504 111.96867361941553 H 0.0 **** 0.06
12928 H 106.13809887928485 51.095540909307715 112.15843718357935 H 0.0 **** 0.06
12929 H 106.1588917115401 51.862896522599954 110.55214612376504 H 0.0 **** 0.06
12930 H 104.60826331587623 51.44527539114165 111.31929669993114 H 0.0 **** 0.06
12931 C 65.398424979252 22.233158148055878 22.018355669919906 C 0.0 **** -0.24
12932 H 65.62691569970676 21.72249014202967 22.953387669889082 H 0.0 **** 0.06
12933 H 65.98895248049031 21.797285987002994 21.211716652307068 H 0.0 **** 0.06
12934 H 65.63938027433302 23.291848706447013 22.11399849856837 H 0.0 **** 0.06
12935 H 64.33730980352672 22.121750665036444 21.79393932066975 H 0.0 **** 0.06
12936 C 26.557646032929 4.249098665359213 5.6263491965909935 C 0.0 **** -0.24
12937 H 27.256044075557497 3.438602941779365 5.417721375332462 H 0.0 **** 0.06
12938 H 26.84126717944946 5.13007603618081 5.049572216229425 H 0.0 **** 0.06
12939 H 26.58423532147819 4.4861845333896895 6.689635129601388 H 0.0 **** 0.06
12940 H 25.550167302008305 3.941378871478122 5.34763105224296 H 0.0 **** 0.06
12941 C 31.362987487332163 80.40963222131576 108.49470513749787 C 0.0 **** -0.24
12942 H 31.080700449645917 80.02427678567233 109.4739052526289 H 0.0 **** 0.06
12943 H 31.96275792177363 79.66508598350896 107.97086255303014 H 0.0 **** 0.06
12944 H 31.94345712840834 81.32371114431248 108.61816932399228 H 0.0 **** 0.06
12945 H 30.464050766050946 80.62528658954176 107.91594720058555 H 0.0 **** 0.06
12946 C 89.54423944042844 123.21284217208503 88.06841011626136 C 0.0 **** -0.24
12947 H 89.30271765532382 123.5441341971419 89.07813557564702 H 0.0 **** 0.06
12948 H 89.03129155486567 123.84792209912656 87.34594027174096 H 0.0 **** 0.06
12949 H 89.22231512559881 122.17951440510811 87.93787588043766 H 0.0 **** 0.06
12950 H 90.6207339546545 123.28077768761074 87.91151514505297 H 0.0 **** 0.06
12951 C 58.13385689195546 22.363143332909402 120.45991917136948 C 0.0 **** -0.24
12952 H 58.04195058873816 23.442207295945735 120.59050246803349 H 0.0 **** 0.06
12953 H 57.37710888369503 21.859118238482722 121.06211094299135 H 0.0 **** 0.06
12954 H 59.12491337155012 22.042849704279377 120.77914429069436 H 0.0 **** 0.06
12955 H 57.990770908365235 22.111244070801803 119.4091162066232 H 0.0 **** 0.06
12956 C 25.96776137406954 82.50145855410584 72.82224437052234 C 0.0 **** -0.24
12957 H 26.30175334315001 81.48107765270971 73.00881837041996 H 0.0 **** 0.06
12958 H 25.24136690827811 82.79042632827687 73.58246767036118 H 0.0 **** 0.06
12959 H 25.504936215150337 82.55824276607287 71.83739205006945 H 0.0 **** 0.06
12960 H 26.822989029699926 83.17608746936395 72.86029939123877 H 0.0 **** 0.06
12961 C 90.24557128817418 0.8750016392324937 113.48746746443967 C 0.0 **** -0.24
12962 H 89.61684895061896 1.7644447846512321 113.5283063990911 H 0.0 **** 0.06
12963 H 91.29472372733343 1.171436743213519 113.47792142460935 H 0.0 **** 0.06
12964 H 90.01875555246431 0.31193862367234715 112.58115655466324 H 0.0 **** 0.06
12965 H 90.05134948933704 0.2522261345703214 114.36086387288202 H 0.0 **** 0.06
12966 C 19.0453532781097 36.80045369748073 58.09173475596101 C 0.0 **** -0.24
12967 H 19.802281912248844 36.02911550352663 58.23232678001807 H 0.0 **** 0.06
12968 H 18.064547925259404 36.33478274939985 57.99845504601815 H 0.0 **** 0.06
12969 H 19.267691234627733 37.36615575514391 57.18671500801851 H 0.0 **** 0.06
12970 H 19.049326106887378 37.47329542121875 58.95029112117106 H 0.0 **** 0.06
12971 C 70.89486797168803 78.55178829860107 6.887129399157118 C 0.0 **** -0.24
12972 H 71.6410275679005 79.34450318984123 6.834255427291339 H 0.0 **** 0.06
12973 H 71.11378495588775 77.90258255360878 7.735149437085937 H 0.0 **** 0.06
12974 H 70.91817215224546 77.96810617532924 5.966892038915773 H 0.0 **** 0.06
12975 H 69.90564091290219 78.99245679624218 7.012416379172976 H 0.0 **** 0.06
12976 C 56.13861198094558 57.41447089803307 75.3271053574611 C 0.0 **** -0.24
12977 H 56.72171758556313 57.28935364402338 76.23982835339898 H 0.0 **** 0.06
12978 H 56.522105133028404 58.26656072614509 74.76517682436513 H 0.0 **** 0.06
12979 H 55.09405320355688 57.58967724644731 75.58567146669073 H 0.0 **** 0.06
12980 H 56.216343992990915 56.51269637642383 74.71969021245299 H 0.0 **** 0.06
12981 C 54.91360843059118 65.35903921062791 52.93500568255372 C 0.0 **** -0.24
12982 H 55.90630517797365 65.01080854309035 53.221104095208034 H 0.0 **** 0.06
12983 H 54.25777816551067 64.50141450404959 52.78282069576184 H 0.0 **** 0.06
12984 H 54.98308400117901 65.93386639190007 52.011781692042845 H 0.0 **** 0.06
12985 H 54.50943529222519 65.99041181969889 53.726591708361966 H 0.0 **** 0.06
12986 C 46.31788464822736 97.32603382177977 119.67749719443532 C 0.0 **** -0.24
12987 H 46.59594209140178 97.67082017128858 120.67411106644757 H 0.0 **** 0.06
12988 H 45.342744548198255 96.84217004468181 119.71974962826916 H 0.0 **** 0.06
12989 H 47.062581195205496 96.61540268154447 119.31935179335295 H 0.0 **** 0.06
12990 H 46.27252387221128 98.1778247298542 118.99891827161242 H 0.0 **** 0.06
12991 C 87.10395646073658 118.55193588692451 5.499691079599813 C 0.0 **** -0.24
12992 H 86.07016835479925 118.45271436496301 5.167257626403369 H 0.0 **** 0.06
12993 H 87.22246042103853 119.49042431273195 6.041038454324081 H 0.0 **** 0.06
12994 H 87.76495157503967 118.54552449642317 4.633136956863183 H 0.0 **** 0.06
12995 H 87.3555873253535 117.71897183852309 6.155350634520914 H 0.0 **** 0.06
12996 C 23.18630895651762 54.71066728396377 67.2262657972824 C 0.0 **** -0.24
12997 H 22.412740308860577 53.97825248355585 67.45851103572909 H 0.0 **** 0.06
12998 H 23.045566522702558 55.07587320610102 66.20927667547386 H 0.0 **** 0.06
12999 H 24.16681065017991 54.24372900068042 67.31322391955345 H 0.0 **** 0.06
13000 H 23.11690160722503 55.54446436351341 67.92593059954805 H 0.0 **** 0.06
13001 C 7.40632525318663 101.05265992318894 84.97165383179647 C 0.0 **** -0.24
13002 H 7.901575218600989 101.8205013629277 84.37853695978971 H 0.0 **** 0.06
13003 H 7.159901621563154 101.45503118226964 85.95439819703113 H 0.0 **** 0.06
13004 H 8.07206330540954 100.19674806963104 85.08586631448368 H 0.0 **** 0.06
13005 H 6.492623343878691 100.73785978366362 84.46773083302928 H 0.0 **** 0.06
13006 C 63.700573585538535 90.15614339174644 84.83289640281177 C 0.0 **** -0.24
13007 H 63.002568275890965 90.00120920543905 84.01003268117404 H 0.0 **** 0.06
13008 H 64.52860669709614 90.77945684702178 84.49433142191612 H 0.0 **** 0.06
13009 H 64.08427729894942 89.19268910401829 85.16862993929394 H 0.0 **** 0.06
13010 H 63.18701879837924 90.65015104916678 85.65723891672812 H 0.0 **** 0.06
13011 C 32.57586130248694 10.447059159147596 53.616822202151184 C 0.0 **** -0.24
13012 H 31.89131827321046 10.612289368143863 52.78421330135521 H 0.0 **** 0.06
13013 H 33.56744724754225 10.211832015074474 53.23041671616963 H 0.0 **** 0.06
13014 H 32.21504943567862 9.617145047799525 54.22497523275783 H 0.0 **** 0.06
13015 H 32.62799287742186 11.348729731100423 54.22815620108773 H 0.0 **** 0.06
13016 C 118.67400698024034 89.22778639252691 4.2029868305469655 C 0.0 **** -0.24
13017 H 119.67025368496667 89.653388222214 4.081490702143444 H 0.0 **** 0.06
13018 H 118.23652098597589 89.04409533718733 3.2204282115643874 H 0.0 **** 0.06
13019 H 118.04564942944754 89.92524652821687 4.756390683420172 H 0.0 **** 0.06
13020 H 118.74529180332237 88.28811720974453 4.750465589389702 H 0.0 **** 0.06
13021 C 56.732248726218316 45.26924056965518 13.895713690872356 C 0.0 **** -0.24
13022 H 56.12874137684243 45.72721544379519 14.679690493252934 H 0.0 **** 0.06
13023 H 56.84651409124011 44.20456751153864 14.100456051690514 H 0.0 **** 0.06
13024 H 57.71284843946391 45.743387160075685 13.869735533761428 H 0.0 **** 0.06
13025 H 56.23838829969935 45.40310807947719 12.933045471843542 H 0.0 **** 0.06
13026 C 43.78907487067589 21.069942999171957 114.9245680329025 C 0.0 **** -0.24
13027 H 43.02098204321871 20.350302848490657 114.64425378239815 H 0.0 **** 0.06
13028 H 44.1828913487797 21.548498060876085 114.02710080822004 H 0.0 **** 0.06
13029 H 44.59595767097202 20.556158298456666 115.44721527522834 H 0.0 **** 0.06
13030 H 43.35632099852262 21.82704074920227 115.57958090745723 H 0.0 **** 0.06
13031 C 40.63278436040301 49.47628399028629 51.98151488820349 C 0.0 **** -0.24
13032 H 39.875655956435 48.70528010556829 52.120249290073104 H 0.0 **** 0.06
13033 H 40.630221118462714 49.80494731793499 50.94150448595866 H 0.0 **** 0.06
13034 H 41.613685558090936 49.07056095444452 52.23238228739109 H 0.0 **** 0.06
13035 H 40.412476307887374 50.32327291972416 52.631743198670165 H 0.0 **** 0.06
13036 C 50.07519025395203 117.01404049838692 84.1644114156937 C 0.0 **** -0.24
13037 H 50.93178266623994 117.36396145430564 83.58806300945108 H 0.0 **** 0.06
13038 H 49.68690337531365 116.09791513780817 83.71733488015118 H 0.0 **** 0.06
13039 H 49.29851817601701 117.77821254189624 84.16154275119617 H 0.0 **** 0.06
13040 H 50.385282297377216 116.81385230341334 85.19040135734649 H 0.0 **** 0.06
13041 C 68.47217680464982 66.62052143038287 114.43895695506203 C 0.0 **** -0.24
13042 H 69.07664282703735 67.41895049355199 114.00614558959964 H 0.0 **** 0.06
13043 H 68.00212601206836 66.97748632308947 115.35558176928643 H 0.0 **** 0.06
13044 H 69.10970846944029 65.76561718448573 114.66623621057576 H 0.0 **** 0.06
13045 H 67.70275358441796 66.32209431705166 113.72724996043772 H 0.0 **** 0.06
13046 C 10.88131395183689 74.98961302670932 112.10128250056974 C 0.0 **** -0.24
13047 H 11.379807315241077 75.7720913282825 111.52814827296785 H 0.0 **** 0.06
13048 H 11.58251215096288 74.55860398106225 112.81503100661286 H 0.0 **** 0.06
13049 H 10.52757372670511 74.21231383640912 111.42335287848152 H 0.0 **** 0.06
13050 H 10.033827415538596 75.41699031482636 112.63748017589612 H 0.0 **** 0.06
13051 C 41.67126669213002 20.846241864836173 96.14323813614209 C 0.0 **** -0.24
13052 H 40.614154008788745 20.581677495413174 96.16273591315962 H 0.0 **** 0.06
13053 H 41.77445448584811 21.911743466221736 95.93704564661849 H 0.0 **** 0.06
13054 H 42.17459193820443 20.274330546045775 95.36299079953798 H 0.0 **** 0.06
13055 H 42.12167345162149 20.616652284810556 97.10889753850981 H 0.0 **** 0.06
13056 C 19.961951348079936 0.9766640874674408 24.491055673452024 C 0.0 **** -0.24
13057 H 19.004402541157162 1.4428719942563077 24.25930544300354 H 0.0 **** 0.06
13058 H 19.789701523695896 0.013438529665819487 24.971471367402046 H 0.0 **** 0.06
13059 H 20.526366474009194 1.6238987697233824 25.16328822766468 H 0.0 **** 0.06
13060 H 20.526895914484555 0.829405529088433 23.570392716379047 H 0.0 **** 0.06
13061 C 111.66314989549795 43.91381192906135 14.215011871546892 C 0.0 **** -0.24
13062 H 111.52093194851528 42.86485063666561 13.958801280218665 H 0.0 **** 0.06
13063 H 111.96089981361717 44.46866975118655 13.32478126072985 H 0.0 **** 0.06
13064 H 112.44179331087696 43.99982074864528 14.973384906268535 H 0.0 **** 0.06
13065 H 110.73103304186401 44.32278720869415 14.60407364692955 H 0.0 **** 0.06
13066 C 112.03870114487054 78.52287258763552 8.91075917672444 C 0.0 **** -0.24
13067 H 112.6630346914871 77.72615468518309 8.505590142461969 H 0.0 **** 0.06
13068 H 111.9329876614905 79.31346668952477 8.16776365801114 H 0.0 **** 0.06
13069 H 112.50462691778279 78.92858687668107 9.8095087907342 H 0.0 **** 0.06
13070 H 111.05635098594925 78.12279677805422 9.159202628847552 H 0.0 **** 0.06
13071 C 91.22656431619089 31.051540098731692 46.16136592628024 C 0.0 **** -0.24
13072 H 90.84889539661398 31.621138745550667 47.009734481954865 H 0.0 **** 0.06
13073 H 91.4642089232729 31.731095400481564 45.34361395903599 H 0.0 **** 0.06
13074 H 90.46760887497959 30.340112918859575 45.83508423841943 H 0.0 **** 0.06
13075 H 92.12619113784518 30.512378787309643 46.45890818100017 H 0.0 **** 0.06
13076 C 12.58553769964049 89.6783516719041 119.92244500881549 C 0.0 **** -0.24
13077 H 12.124529039458455 90.3072732077531 120.68448336745928 H 0.0 **** 0.06
13078 H 13.36344235723677 89.0656593664961 120.37962797758871 H 0.0 **** 0.06
13079 H 13.026098231722116 90.30911671263661 119.15027171623149 H 0.0 **** 0.06
13080 H 11.828544688796136 89.03278173644435 119.47733520512872 H 0.0 **** 0.06
13081 C 54.225560809313194 42.95718093387538 56.39439103340922 C 0.0 **** -0.24
13082 H 55.08651069244185 43.35264276325836 56.93392414681489 H 0.0 **** 0.06
13083 H 53.394348658592534 43.658705081388376 56.47440984633769 H 0.0 **** 0.06
13084 H 53.93591120388014 41.99903552571172 56.826634281995894 H 0.0 **** 0.06
13085 H 54.486325841264716 42.81972127026907 55.345488229615995 H 0.0 **** 0.06
13086 C 100.18216141301016 98.17029407844062 12.955222803569143 C 0.0 **** -0.24
13087 H 99.44418935209741 97.40716546673704 13.200656334878829 H 0.0 **** 0.06
13088 H 100.17784240844692 98.9408078276914 13.72700235925737 H 0.0 **** 0.06
13089 H 99.9351338478569 98.61813621416114 11.99273202247565 H 0.0 **** 0.06
13090 H 101.17098918084176 97.71549021967557 12.901261961712777 H 0.0 **** 0.06
13091 C 107.49154450252718 33.627947673107855 42.23979709231446 C 0.0 **** -0.24
13092 H 107.62038070678454 34.43476526524846 41.518611756275845 H 0.0 **** 0.06
13093 H 106.51123008471734 33.71310326660996 42.71020643742179 H 0.0 **** 0.06
13094 H 108.26750786749597 33.695676677137754 43.00231027051433 H 0.0 **** 0.06
13095 H 107.56705935111086 32.66824548343507 41.72805990504585 H 0.0 **** 0.06
13096 C 25.00233530670988 108.19597346274728 62.50491416666141 C 0.0 **** -0.24
13097 H 24.188806728301586 107.89185969947718 63.16436153848379 H 0.0 **** 0.06
13098 H 25.09945035020695 109.2808481155474 62.5251204248778 H 0.0 **** 0.06
13099 H 24.785014446690468 107.8684196580077 61.487836046620686 H 0.0 **** 0.06
13100 H 25.93270323360082 107.74038600044733 62.84229856359292 H 0.0 **** 0.06
13101 C 96.39835250906035 72.78556824759153 57.66590396680951 C 0.0 **** -0.24
13102 H 95.90252133583766 73.38704602788081 58.42749349529063 H 0.0 **** 0.06
13103 H 97.4563073893122 73.04675982054675 57.62770467343202 H 0.0 **** 0.06
13104 H 95.94108920689247 72.9787927811268 56.695831688547486 H 0.0 **** 0.06
13105 H 96.29404001974508 71.72806933427373 57.91293791796525 H 0.0 **** 0.06
13106 C 79.09113633547942 86.5134493110117 50.22635312250101 C 0.0 **** -0.24
13107 H 79.41899993400045 86.77352979194237 51.232487942465646 H 0.0 **** 0.06
13108 H 78.20088781185609 87.08986643158937 49.973919767257165 H 0.0 **** 0.06
13109 H 78.85926922548788 85.44925307830215 50.183683128959515 H 0.0 **** 0.06
13110 H 79.88538837057294 86.74114794221293 49.51532165132153 H 0.0 **** 0.06
13111 C 20.528224122188092 44.148460614066494 9.681922123204817 C 0.0 **** -0.24
13112 H 21.184959571316583 43.362275464364174 10.055282812087881 H 0.0 **** 0.06
13113 H 21.086323019831823 45.08142248840983 9.6023641259262 H 0.0 **** 0.06
13114 H 19.693322458596228 44.2809269750778 10.36978080339335 H 0.0 **** 0.06
13115 H 20.147716441671577 43.866367391295796 8.699521441541616 H 0.0 **** 0.06
13116 C 48.57301534980203 1.6439928549360303 100.41594915740939 C 0.0 **** -0.24
13117 H 49.106683942308095 2.068216983970231 101.2664057557657 H 0.0 **** 0.06
13118 H 48.711086903657005 2.2844011322755478 99.54463566276834 H 0.0 **** 0.06
13119 H 47.51114742643678 1.5747444012628051 100.65265760141145 H 0.0 **** 0.06
13120 H 48.964225807243906 0.6491714190613891 100.20197154832718 H 0.0 **** 0.06
13121 C 101.63420470822302 1.4169288214871614 46.606869734027185 C 0.0 **** -0.24
13122 H 100.55161496781267 1.449473946815715 46.48618439845416 H 0.0 **** 0.06
13123 H 101.88305979898678 0.8330372088316125 47.493360269143466 H 0.0 **** 0.06
13124 H 102.01647296868265 2.4316664823309964 46.72009160752853 H 0.0 **** 0.06
13125 H 102.08406377666088 0.9552569374017992 45.72852154654262 H 0.0 **** 0.06
13126 C 21.057073838083454 13.853625736274296 64.77609380384965 C 0.0 **** -0.24
13127 H 21.56736838425502 13.386899314675162 65.61863972628575 H 0.0 **** 0.06
13128 H 21.538796519452205 14.802874747598224 64.54094215658785 H 0.0 **** 0.06
13129 H 20.01337136039453 14.029561535537596 65.03511387998563 H 0.0 **** 0.06
13130 H 21.10971730824693 13.19420852565571 63.90860119637503 H 0.0 **** 0.06
13131 C 98.872612239167 111.83271079809434 116.99238608875325 C 0.0 **** -0.24
13132 H 98.50427551459744 111.02649629680177 117.62649327462603 H 0.0 **** 0.06
13133 H 99.51778456444657 112.48974482408862 117.57703449168056 H 0.0 **** 0.06
13134 H 98.02809868146208 112.40411740032799 116.60492751596729 H 0.0 **** 0.06
13135 H 99.4378231198116 111.4126994903661 116.16099579883817 H 0.0 **** 0.06
13136 C 40.419143380942785 104.26182669229003 107.39799689674538 C 0.0 **** -0.24
13137 H 39.505744592768366 104.69911418843594 106.99521905783183 H 0.0 **** 0.06
13138 H 40.396973054995186 104.31284924293936 108.48608826512566 H 0.0 **** 0.06
13139 H 41.28163192687748 104.8155666551019 107.02531695548885 H 0.0 **** 0.06
13140 H 40.49280766862955 103.22116865131649 107.08371347127417 H 0.0 **** 0.06
13141 C 54.724764104812124 35.776968491585194 1.532000186855953 C 0.0 **** -0.24
13142 H 53.84243846302033 36.414239913588005 1.4723318751420038 H 0.0 **** 0.06
13143 H 54.75370767680948 35.115182005744444 0.6660286768081392 H 0.0 **** 0.06
13144 H 54.6811971289452 35.18135360856242 2.4441112346864315 H 0.0 **** 0.06
13145 H 55.621121160874964 36.39784672035583 1.5452295010710486 H 0.0 **** 0.06
13146 C 88.1705225564582 73.56477145651706 116.41221264703145 C 0.0 **** -0.24
13147 H 88.11444092710468 74.6137959461106 116.70545701253613 H 0.0 **** 0.06
13148 H 89.19576101773418 73.32183084419722 116.12931377090888 H 0.0 **** 0.06
13149 H 87.50813936030927 73.38899972793496 115.56531864998831 H 0.0 **** 0.06
13150 H 87.86652807138621 72.93660334369605 117.24958585383297 H 0.0 **** 0.06
13151 C 103.78047294450158 101.50937304738576 61.174186459772386 C 0.0 **** -0.24
13152 H 102.77589563625679 101.50026859657895 60.75038073901747 H 0.0 **** 0.06
13153 H 103.84012545373923 102.27500601674163 61.94802912291772 H 0.0 **** 0.06
13154 H 104.50341813824292 101.72903181939859 60.38939291495558 H 0.0 **** 0.06
13155 H 103.99988075992871 100.5346463933468 61.60944597430766 H 0.0 **** 0.06
13156 C 16.368626325886424 110.93504591544216 88.91323271876574 C 0.0 **** -0.24
13157 H 15.910851344161557 111.87889133813982 89.20975860871656 H 0.0 **** 0.06
13158 H 16.48252780541415 110.91262912392372 87.82884869307573 H 0.0 **** 0.06
13159 H 15.73353775801786 110.10858165857894 89.22979072140775 H 0.0 **** 0.06
13160 H 17.347016350117258 110.84265809390433 89.38351571454034 H 0.0 **** 0.06
13161 C 28.63195354201261 76.23545046956474 100.52429919111694 C 0.0 **** -0.24
13162 H 28.024495007345934 76.04598284232509 99.63975365116443 H 0.0 **** 0.06
13163 H 27.990775902610096 76.27436116786626 101.40447068443459 H 0.0 **** 0.06
13164 H 29.15145178199907 77.18760640939327 100.41123985213774 H 0.0 **** 0.06
13165 H 29.361894198800158 75.43500375254338 100.64156535727786 H 0.0 **** 0.06
13166 C 12.018538612582233 51.141118608638266 107.45330986738375 C 0.0 **** -0.24
13167 H 12.038296962318185 51.99135472759747 106.77140014689202 H 0.0 **** 0.06
13168 H 11.082676152507815 50.596446901985075 107.3283983178926 H 0.0 **** 0.06
13169 H 12.097952240661527 51.49867283394829 108.48027977790332 H 0.0 **** 0.06
13170 H 12.85657090099599 50.48059108197427 107.23385849501094 H 0.0 **** 0.06
13171 C 48.204810071061374 98.32521287519296 82.92363367859427 C 0.0 **** -0.24
13172 H 47.661376141515206 98.61550174378613 82.02507395057724 H 0.0 **** 0.06
13173 H 48.438641866829215 99.21379625157368 83.50981280545837 H 0.0 **** 0.06
13174 H 49.13051274507461 97.82171536843208 82.64106396351146 H 0.0 **** 0.06
13175 H 47.59090752332912 97.64877862857321 83.51836814155556 H 0.0 **** 0.06
13176 C 52.16344792498097 43.64609837690533 113.9628701439535 C 0.0 **** -0.24
13177 H 53.10447291021882 43.419023042704055 114.46385265396111 H 0.0 **** 0.06
13178 H 51.77442592503286 44.59539409517191 114.33404846543002 H 0.0 **** 0.06
13179 H 51.442746849261084 42.854066409831944 114.16680650912161 H 0.0 **** 0.06
13180 H 52.33035590430734 43.71683013239712 112.88816905137298 H 0.0 **** 0.06
13181 C 13.335291894374471 17.931918878062618 94.31094718027467 C 0.0 **** -0.24
13182 H 12.675407027318261 18.543532351894555 94.92551823428437 H 0.0 **** 0.06
13183 H 13.604311091981657 17.02634422438723 94.85535140793272 H 0.0 **** 0.06
13184 H 14.238670849356975 18.496620266588195 94.07568215515346 H 0.0 **** 0.06
13185 H 12.825003919658968 17.663032149331002 93.3864539253562 H 0.0 **** 0.06
13186 C 7.012504832116406 58.28146374473714 41.87898410367097 C 0.0 **** -0.24
13187 H 6.4578031633251385 57.39835102169302 41.56374669683976 H 0.0 **** 0.06
13188 H 7.721379667629321 58.56391931458481 41.10048873539432 H 0.0 **** 0.06
13189 H 7.552248015397424 58.061999824255466 42.79995400965646 H 0.0 **** 0.06
13190 H 6.318123087426045 59.1034902245257 42.05321433678398 H 0.0 **** 0.06
13191 C 93.01231360148438 55.24704367908144 39.30058713838848 C 0.0 **** -0.24
13192 H 93.94814775432603 55.78279966546474 39.1405849960217 H 0.0 **** 0.06
13193 H 92.29807086906595 55.521215460080995 38.52386460877328 H 0.0 **** 0.06
13194 H 92.60540236959784 55.510667431684496 40.27752907519131 H 0.0 **** 0.06
13195 H 93.19742302351588 54.17333921785381 39.26335865724592 H 0.0 **** 0.06
13196 C 112.39338557645623 60.252534552228994 8.865886526821242 C 0.0 **** -0.24
13197 H 111.63705183963819 59.469768463743264 8.80568476911958 H 0.0 **** 0.06
13198 H 113.23939805138014 59.990214049533634 8.22944435826031 H 0.0 **** 0.06
13199 H 112.73173288211439 60.35097449089902 9.897588233604665 H 0.0 **** 0.06
13200 H 111.9657596093555 61.19700114369779 8.53112461896518 H 0.0 **** 0.06
13201 C 86.91350322311354 124.25503050739553 14.066341080586653 C 0.0 **** -0.24
13202 H 86.14322656438776 123.4875928587258 14.142413611451786 H 0.0 **** 0.06
13203 H 87.01479933083152 124.76491780220658 15.024196357959738 H 0.0 **** 0.06
13204 H 86.6330954094899 124.97574531570524 13.297441612168768 H 0.0 **** 0.06
13205 H 87.86308416039714 123.79083635556839 13.798685371725583 H 0.0 **** 0.06
13206 C 116.11667539368838 31.316474977792517 97.57977722618799 C 0.0 **** -0.24
13207 H 115.91860582738698 31.445502773936745 98.64392100942688 H 0.0 **** 0.06
13208 H 116.26683880338896 30.257653986853754 97.36451490308205 H 0.0 **** 0.06
13209 H 117.01321538648443 31.87323438975502 97.30736632585987 H 0.0 **** 0.06
13210 H 115.26928264002737 31.687728275427304 97.00444240770452 H 0.0 **** 0.06
13211 C 107.50123697570547 84.4305563743651 14.060368471330548 C 0.0 **** -0.24
13212 H 106.5102156580163 84.87941455445959 13.995454886698155 H 0.0 **** 0.06
13213 H 107.46904186671581 83.57219153564948 14.730586292315564 H 0.0 **** 0.06
13214 H 108.20812892563279 85.1659212229664 14.446108123579364 H 0.0 **** 0.06
13215 H 107.81906014678563 84.10727975327667 13.069024749475659 H 0.0 **** 0.06
13216 C 106.39374506422212 75.81564281668649 33.09208448010645 C 0.0 **** -0.24
13217 H 105.66231546408966 75.05677965131161 33.37253094376223 H 0.0 **** 0.06
13218 H 106.87969471356195 75.52278743963598 32.16049365626225 H 0.0 **** 0.06
13219 H 107.14171630363884 75.90786240428194 33.87912275222783 H 0.0 **** 0.06
13220 H 105.88968573943816 76.77173999405184 32.953961175535596 H 0.0 **** 0.06
13221 C 65.75809768272197 121.72898637805066 123.96241670792168 C 0.0 **** -0.24
13222 H 66.47963229964569 121.88068980480857 124.7652209025648 H 0.0 **** 0.06
13223 H 65.7222593525585 120.67125870261867 123.70138703244119 H 0.0 **** 0.06
13224 H 66.05993321830528 122.30915618429769 123.08894252426116 H 0.0 **** 0.06
13225 H 64.77220725277982 122.05563004568427 124.29247830151171 H 0.0 **** 0.06
13226 C 6.344669037633807 104.00457218702124 68.86617687664162 C 0.0 **** -0.24
13227 H 5.366855814325461 104.00161013429309 68.3840428088976 H 0.0 **** 0.06
13228 H 6.7647239886004655 105.01038911458309 68.82850818724518 H 0.0 **** 0.06
13229 H 7.007183483665685 103.31343077307375 68.34725901946857 H 0.0 **** 0.06
13230 H 6.237809867904019 103.69472473064982 69.90594435170142 H 0.0 **** 0.06
13231 C 50.956960864470545 120.44922649288986 109.34624005781515 C 0.0 **** -0.24
13232 H 51.94269787422745 120.02312327848071 109.5287317611863 H 0.0 **** 0.06
13233 H 50.97298442483244 121.51445339112703 109.57727170202642 H 0.0 **** 0.06
13234 H 50.22297896674747 119.9507269442991 109.9792696567861 H 0.0 **** 0.06
13235 H 50.688227270543436 120.30798740349158 108.29884445860733 H 0.0 **** 0.06
13236 C 69.08148525505493 60.53791599393668 69.80273905823742 C 0.0 **** -0.24
13237 H 68.60008930623067 60.97221646162075 68.9269384457362 H 0.0 **** 0.06
13238 H 68.96068513277422 61.20831158936369 70.6532134797921 H 0.0 **** 0.06
13239 H 70.14319690965723 60.393507577527885 69.60020428932756 H 0.0 **** 0.06
13240 H 68.62168027258642 59.57545205058216 70.03017546039956 H 0.0 **** 0.06
13241 C 14.415280450458894 111.4180081078701 57.003597443786816 C 0.0 **** -0.24
13242 H 13.627442801779033 110.77142326071856 56.617491800695504 H 0.0 **** 0.06
13243 H 15.114839145763515 110.82514222489627 57.59375881201687 H 0.0 **** 0.06
13244 H 13.973963527522521 112.191500553044 57.63210879334926 H 0.0 **** 0.06
13245 H 14.94374679885047 111.88299197148237 56.171910613711844 H 0.0 **** 0.06
13246 C 88.95670954095587 64.93142001535577 72.21306431691534 C 0.0 **** -0.24
13247 H 88.69705704634035 65.97651717295045 72.38295322806437 H 0.0 **** 0.06
13248 H 88.41162508644757 64.30366230725707 72.91875544135979 H 0.0 **** 0.06
13249 H 90.02755247969449 64.79533881026542 72.35784660313789 H 0.0 **** 0.06
13250 H 88.6882258484016 64.65254829948769 71.19433041795611 H 0.0 **** 0.06
13251 C 66.68913535670933 85.59871844553206 5.046502615306906 C 0.0 **** -0.24
13252 H 66.51873057309018 84.87936811258936 4.244488835819844 H 0.0 **** 0.06
13253 H 67.57747278017163 85.30955792916046 5.609550228617611 H 0.0 **** 0.06
13254 H 65.8255647910863 85.61260542065142 5.7103155831880805 H 0.0 **** 0.06
13255 H 66.83580338577679 86.59051670979463 4.61883522371183 H 0.0 **** 0.06
13256 C 39.60692157555452 7.686923985908603 0.4647703229356068 C 0.0 **** -0.24
13257 H 39.08314202271029 6.83147648924529 0.036982615006024844 H 0.0 **** 0.06
13258 H 40.521319395705376 7.347678809154232 0.9510531840947181 H 0.0 **** 0.06
13259 H 38.96494364561639 8.174891543263737 1.198509196989903 H 0.0 **** 0.06
13260 H 39.85594388449903 8.393479796999635 -0.3267506578493453 H 0.0 **** 0.06
13261 C 31.41806918174492 66.14161468772764 31.473737276971093 C 0.0 **** -0.24
13262 H 30.707667174074587 65.61026093504083 30.84064733989655 H 0.0 **** 0.06
13263 H 31.488020657770647 65.63997363423124 32.43956584304303 H 0.0 **** 0.06
13264 H 31.077900968517334 67.166108899703 31.620774143579382 H 0.0 **** 0.06
13265 H 32.39743921602845 66.14893235710713 30.995390654640232 H 0.0 **** 0.06
13266 C 85.25990018852848 41.940309601169986 78.0189290330029 C 0.0 **** -0.24
13267 H 86.09683543433088 42.280914283629556 77.41019305224484 H 0.0 **** 0.06
13268 H 84.67526333695918 42.80041598174671 78.34748580076206 H 0.0 **** 0.06
13269 H 85.63885703484648 41.40517184988897 78.88986015786793 H 0.0 **** 0.06
13270 H 84.62818915096612 41.275189331132424 77.42943692649226 H 0.0 **** 0.06
13271 C 22.36225375831112 119.4029846223882 121.916614427443 C 0.0 **** -0.24
13272 H 22.622400198010773 119.5186282453848 120.86408408081114 H 0.0 **** 0.06
13273 H 21.758683394468278 118.50410150247339 122.04427289973931 H 0.0 **** 0.06
13274 H 21.79532345583972 120.27295301572178 122.24753846064235 H 0.0 **** 0.06
13275 H 23.27329747808495 119.3159309535159 122.50749312239975 H 0.0 **** 0.06
13276 C 43.41810621694191 88.17061671607736 26.335620346498388 C 0.0 **** -0.24
13277 H 43.308416619980335 87.32904684196072 25.65174459857178 H 0.0 **** 0.06
13278 H 42.45413664596785 88.66318589927494 26.464130998869308 H 0.0 **** 0.06
13279 H 44.137219944186256 88.88070022554076 25.92598316570755 H 0.0 **** 0.06
13280 H 43.77463360432384 87.81034870544119 27.301261562205724 H 0.0 **** 0.06
13281 C 79.10579769073655 29.172145605087053 83.22852457110656 C 0.0 **** -0.24
13282 H 78.79453598064651 29.52212311771771 82.24354098050782 H 0.0 **** 0.06
13283 H 79.05629507032504 29.997127477586275 83.93891466541413 H 0.0 **** 0.06
13284 H 80.12805563137724 28.798312608573298 83.1750336848778 H 0.0 **** 0.06
13285 H 78.44276785780093 28.37065089997715 83.55502635114976 H 0.0 **** 0.06
13286 C 99.99748941972184 48.792693763224015 80.39709638827046 C 0.0 **** -0.24
13287 H 99.29070725274823 49.58871533712067 80.62980712894617 H 0.0 **** 0.06
13288 H 99.93630750864929 48.55302107361725 79.33455058003139 H 0.0 **** 0.06
13289 H 99.75381638158798 47.90641401127219 80.98332960310279 H 0.0 **** 0.06
13290 H 101.007522577241 49.122089940274115 80.6378448198226 H 0.0 **** 0.06
13291 C 90.09440375079244 111.83548548419542 120.15365001100537 C 0.0 **** -0.24
13292 H 89.13855010829997 112.16265984510528 119.74446733758782 H 0.0 **** 0.06
13293 H 89.95036650657394 111.48544998131356 121.1755287191572 H 0.0 **** 0.06
13294 H 90.79489855883638 112.6706344490513 120.15005256569631 H 0.0 **** 0.06
13295 H 90.49237112475711 111.02526214657055 119.54324868120753 H 0.0 **** 0.06
13296 C 40.346058780663526 44.398290010130324 121.95045020320666 C 0.0 **** -0.24
13297 H 39.8885907115706 45.27061881916305 122.41764303627923 H 0.0 **** 0.06
13298 H 41.39908677676911 44.601575779315596 121.75542033535507 H 0.0 **** 0.06
13299 H 39.837221021906146 44.18127019701308 121.011018850335 H 0.0 **** 0.06
13300 H 40.25850542874704 43.54131406185991 122.61854851873721 H 0.0 **** 0.06
13301 C 17.262588243488004 37.59666681162915 32.263237350927895 C 0.0 **** -0.24
13302 H 17.775047406680518 37.071123936767634 31.45666369166443 H 0.0 **** 0.06
13303 H 17.99122548163738 38.15509837159084 32.851601795385086 H 0.0 **** 0.06
13304 H 16.75455435089422 36.87494622099004 32.9024545534117 H 0.0 **** 0.06
13305 H 16.53187880121053 38.28629351650656 31.840031190814308 H 0.0 **** 0.06
13306 C 37.25531579675095 47.434450460888854 32.338542910293555 C 0.0 **** -0.24
13307 H 37.44635545080013 46.36268082574958 32.40053046153417 H 0.0 **** 0.06
13308 H 37.60525721260882 47.91911617714163 33.25037233131273 H 0.0 **** 0.06
13309 H 36.185110822116314 47.606112006673754 32.222261591456 H 0.0 **** 0.06
13310 H 37.78471386983773 47.848634762834024 31.48038513984484 H 0.0 **** 0.06
13311 C 95.72475447745128 13.228116034501852 71.63701027288478 C 0.0 **** -0.24
13312 H 94.85870967576427 13.873474522538118 71.49161595811086 H 0.0 **** 0.06
13313 H 96.6276453276925 13.760068489328887 71.33358891476364 H 0.0 **** 0.06
13314 H 95.61340976585069 12.328408921138475 71.03376898833014 H 0.0 **** 0.06
13315 H 95.8010595290237 12.954838432950112 72.68891927103327 H 0.0 **** 0.06
13316 C 69.94920749482976 67.28590086042395 28.077229797632327 C 0.0 **** -0.24
13317 H 70.82530031311924 67.83998208746897 28.415320191926384 H 0.0 **** 0.06
13318 H 70.26714409932332 66.45111109594417 27.452441766976023 H 0.0 **** 0.06
13319 H 69.30289050402874 67.94723086403731 27.49917120068558 H 0.0 **** 0.06
13320 H 69.40294714595721 66.90779967658824 28.941251106341667 H 0.0 **** 0.06
13321 C 90.22845959902355 0.25495761507464465 83.76985441527574 C 0.0 **** -0.24
13322 H 89.96351304546099 1.2594036023418909 84.09778003376346 H 0.0 **** 0.06
13323 H 89.32509919541322 -0.2819416936016239 83.47877904500461 H 0.0 **** 0.06
13324 H 90.7204737208955 -0.27519405761459836 84.58563382383579 H 0.0 **** 0.06
13325 H 90.90475243432473 0.3175626091730521 82.91722475849889 H 0.0 **** 0.06
13326 C 90.30567369049163 67.01304824085338 26.303729222660536 C 0.0 **** -0.24
13327 H 90.68847711933789 67.80581442117008 26.945726867272327 H 0.0 **** 0.06
13328 H 89.32015406103616 67.29287662580265 25.929150877933722 H 0.0 **** 0.06
13329 H 90.22748080717633 66.08872329597884 26.876486588306648 H 0.0 **** 0.06
13330 H 90.98500983409494 66.86383427962525 25.464830973043547 H 0.0 **** 0.06
13331 C 54.537721405122085 17.99288644265988 66.36015478823356 C 0.0 **** -0.24
13332 H 54.09840100533893 17.982295136264725 65.36235363026923 H 0.0 **** 0.06
13333 H 55.021615040699515 18.95452603757127 66.53378945345797 H 0.0 **** 0.06
13334 H 55.275167531747 17.195015956305383 66.44043889806244 H 0.0 **** 0.06
13335 H 53.75446956400887 17.840782351199493 67.10288462782972 H 0.0 **** 0.06
13336 C 85.90893190646553 5.724595870241728 20.375715768100775 C 0.0 **** -0.24
13337 H 86.55619338156262 4.848722857040059 20.404899548061167 H 0.0 **** 0.06
13338 H 86.4379984788194 6.551809916638604 19.901713413853713 H 0.0 **** 0.06
13339 H 85.63131156408664 6.005528992358251 21.391192594284803 H 0.0 **** 0.06
13340 H 85.01017818748257 5.493185559617501 19.80455581041349 H 0.0 **** 0.06
13341 C 95.20634280893752 52.33856714586153 97.88642281235754 C 0.0 **** -0.24
13342 H 96.21211418670694 52.49235478932309 98.27633300470066 H 0.0 **** 0.06
13343 H 94.86587719639645 53.24644010161876 97.3893408032902 H 0.0 **** 0.06
13344 H 94.53019573939068 52.09934173933658 98.70863274737395 H 0.0 **** 0.06
13345 H 95.21542844582964 51.51401018807701 97.17257474759386 H 0.0 **** 0.06
13346 C 93.02082094923641 22.9182946313816 17.326672269638408 C 0.0 **** -0.24
13347 H 92.80017436039537 21.85538273547556 17.233860434992607 H 0.0 **** 0.06
13348 H 93.96968987351886 23.04753450692027 17.848641235640173 H 0.0 **** 0.06
13349 H 92.2262965062827 23.406253955955748 17.891476951750832 H 0.0 **** 0.06
13350 H 93.08755222649596 23.36435540811766 16.33435204499068 H 0.0 **** 0.06
13351 C 30.83689394960126 53.37248480600665 107.57852358071001 C 0.0 **** -0.24
13352 H 29.760725409032148 53.35685972952069 107.40481733240773 H 0.0 **** 0.06
13353 H 31.299146667631803 52.52548901336563 107.07202359728535 H 0.0 **** 0.06
13354 H 31.032798363776493 53.30693513485568 108.64892417202836 H 0.0 **** 0.06
13355 H 31.253810415510046 54.301026504495 107.18914374542827 H 0.0 **** 0.06
13356 C 92.09698158731392 36.44665595551626 112.42120814555474 C 0.0 **** -0.24
13357 H 93.0191533318567 35.97407421857068 112.08230475420712 H 0.0 **** 0.06
13358 H 92.24570701213902 36.85796958293909 113.41982397658832 H 0.0 **** 0.06
13359 H 91.29809926024346 35.70476616922596 112.44878254904685 H 0.0 **** 0.06
13360 H 91.82485221157454 37.2473674628246 111.73387244422877 H 0.0 **** 0.06
13361 C 24.551540981623674 66.78823985632778 107.65135695243995 C 0.0 **** -0.24
13362 H 24.407436082201585 66.1869456204401 108.54857024066565 H 0.0 **** 0.06
13363 H 24.232986622585173 67.8124112173769 107.84599728895552 H 0.0 **** 0.06
13364 H 23.959819419614334 66.37175530748686 106.83625762464717 H 0.0 **** 0.06
13365 H 25.605369421019248 66.78212149393602 107.3753898882994 H 0.0 **** 0.06
13366 C 121.549714631725 95.52634218276063 82.7993540229827 C 0.0 **** -0.24
13367 H 122.51767573278127 95.53442226539664 83.299350690601 H 0.0 **** 0.06
13368 H 121.6229409507984 96.06821649234993 81.85665002741848 H 0.0 **** 0.06
13369 H 120.80717666857824 96.00632273200003 83.43814103235391 H 0.0 **** 0.06
13370 H 121.24984704839565 94.49656186719196 82.60449598794919 H 0.0 **** 0.06
13371 C 69.93943200619219 119.99231407563421 46.63783632235158 C 0.0 **** -0.24
13372 H 70.82912665978131 119.68983451278785 46.085106488640655 H 0.0 **** 0.06
13373 H 69.72976598328131 121.04343959047549 46.44067396223196 H 0.0 **** 0.06
13374 H 70.10939800866657 119.84899311877811 47.705169164821 H 0.0 **** 0.06
13375 H 69.09083048731998 119.38530441855677 46.31992512629438 H 0.0 **** 0.06
13376 C 123.12681754324842 53.167437482954085 68.76623651583762 C 0.0 **** -0.24
13377 H 123.82793518495174 52.53588106079238 68.21853644404632 H 0.0 **** 0.06
13378 H 123.30245195517467 53.05954269536596 69.83702735803593 H 0.0 **** 0.06
13379 H 122.10643741795383 52.8652586809082 68.53138112625109 H 0.0 **** 0.06
13380 H 123.27356260314647 54.2078568616632 68.47558873714601 H 0.0 **** 0.06
13381 C 106.41662624515993 16.175417420537315 78.89760434163276 C 0.0 **** -0.24
13382 H 105.52939833150253 15.547089830472771 78.81584979824822 H 0.0 **** 0.06
13383 H 106.12435224543572 17.224044005191132 78.8475256788251 H 0.0 **** 0.06
13384 H 107.09847664800611 15.947358119180308 78.0789147539362 H 0.0 **** 0.06
13385 H 106.91169519627147 15.981007859843459 79.84891625243768 H 0.0 **** 0.06
13386 C 35.862217454203744 43.84488354579452 31.545002321235437 C 0.0 **** -0.24
13387 H 36.02268515669516 42.94988452672624 32.145599146512765 H 0.0 **** 0.06
13388 H 35.27185912559531 44.563649023214566 32.11428871668218 H 0.0 **** 0.06
13389 H 35.32921697268819 43.57857410984934 30.632142808545417 H 0.0 **** 0.06
13390 H 36.824444225614684 44.28681474088796 31.287549156357166 H 0.0 **** 0.06
13391 C 118.39428045902356 64.34579907370858 7.617454156392256 C 0.0 **** -0.24
13392 H 118.51367441901175 65.41440710710515 7.798790064944853 H 0.0 **** 0.06
13393 H 119.27088545554537 63.8143746102953 7.987181619565661 H 0.0 **** 0.06
13394 H 118.2864194325635 64.16935056111122 6.5466956905315214 H 0.0 **** 0.06
13395 H 117.50469854329874 63.987275000663104 8.135725545420286 H 0.0 **** 0.06
13396 C 51.7881065055189 12.386556331773818 37.90617793687761 C 0.0 **** -0.24
13397 H 52.82509341082837 12.565410768569109 38.19220767581763 H 0.0 **** 0.06
13398 H 51.22380850471506 13.314641925915964 37.98689042720608 H 0.0 **** 0.06
13399 H 51.35359971460688 11.637855249788004 38.56856773596877 H 0.0 **** 0.06
13400 H 51.75269946890963 12.026954528493093 36.877710823585545 H 0.0 **** 0.06
13401 C 56.5481384591305 44.392454588891894 38.09178301229531 C 0.0 **** -0.24
13402 H 56.86132229416374 45.427701346141305 38.2290957022806 H 0.0 **** 0.06
13403 H 57.32078725605862 43.72568775334997 38.474339570953106 H 0.0 **** 0.06
13404 H 56.39404417377261 44.1980130690722 37.030312257735204 H 0.0 **** 0.06
13405 H 55.617687246963825 44.21883383288315 38.631604314577885 H 0.0 **** 0.06
13406 C 66.72241445681168 110.26145404369707 74.16330585638529 C 0.0 **** -0.24
13407 H 66.68132388109947 109.41052479056758 73.4839343559668 H 0.0 **** 0.06
13408 H 66.79553606575358 111.18387238420686 73.58583514130667 H 0.0 **** 0.06
13409 H 67.5953889538306 110.1677105777708 74.80998773264677 H 0.0 **** 0.06
13410 H 65.8195839662373 110.28363859874543 74.77234162955503 H 0.0 **** 0.06
13411 C 14.198393790306625 50.96304608088511 16.058544089854912 C 0.0 **** -0.24
13412 H 13.768511925580952 51.94903773457429 15.880539094426563 H 0.0 **** 0.06
13413 H 13.792371546741151 50.5524785083573 16.983262931356062 H 0.0 **** 0.06
13414 H 15.281716475443346 51.049827141120375 16.14314742230938 H 0.0 **** 0.06
13415 H 13.951205863490287 50.30327687970558 15.227342313082879 H 0.0 **** 0.06
13416 C 33.73500618699927 31.238082401564384 52.991747601355655 C 0.0 **** -0.24
13417 H 33.01939483443954 30.92489177436687 53.75133214535015 H 0.0 **** 0.06
13418 H 33.34272206379853 30.99897494330247 52.00311191703514 H 0.0 **** 0.06
13419 H 34.67967864420132 30.715767668810656 53.14425332481403 H 0.0 **** 0.06
13420 H 33.89789844667189 32.313214899874254 53.067019975253174 H 0.0 **** 0.06
13421 C 1.7364300383597566 109.56579747168502 86.67432845506245 C 0.0 **** -0.24
13422 H 1.9416421378487314 109.3797598509638 85.62002028621417 H 0.0 **** 0.06
13423 H 2.5789720149390405 109.22055712067028 87.27458247871866 H 0.0 **** 0.06
13424 H 0.834816442877937 109.0294949260759 86.97001782488759 H 0.0 **** 0.06
13425 H 1.5915633680217525 110.63449995038798 86.83234859869434 H 0.0 **** 0.06
13426 C 29.87983606522812 83.37568578107818 39.36962484544205 C 0.0 **** -0.24
13427 H 29.867859785417977 82.31372428870276 39.615226293135095 H 0.0 **** 0.06
13428 H 30.86907902589303 83.65283202225417 39.00363290513651 H 0.0 **** 0.06
13429 H 29.646694718915796 83.9565054533509 40.26181333829831 H 0.0 **** 0.06
13430 H 29.13623757050715 83.5779845418022 38.59918460655754 H 0.0 **** 0.06
13431 C 63.26480312610762 72.48417172660787 89.80246287313065 C 0.0 **** -0.24
13432 H 63.99160336355931 73.21029732026862 90.1651923711832 H 0.0 **** 0.06
13433 H 63.14371819958308 72.59854281610784 88.72540837836391 H 0.0 **** 0.06
13434 H 62.30674197398571 72.65050231690644 90.29665186531514 H 0.0 **** 0.06
13435 H 63.61689731644368 71.4764853020041 90.02438738140665 H 0.0 **** 0.06
13436 C 9.735256434668713 44.078374784389396 0.8172481781713596 C 0.0 **** -0.24
13437 H 9.749629058010854 43.37452174997769 -0.015290754687130814 H 0.0 **** 0.06
13438 H 10.356261201670492 44.94133161625885 0.5733867742826337 H 0.0 **** 0.06
13439 H 10.121986567038249 43.59185976415844 1.7119987461766097 H 0.0 **** 0.06
13440 H 8.7106100044262 44.407064585484406 0.995911293662811 H 0.0 **** 0.06
13441 C 81.74525266298349 40.36660093107682 45.25729013508364 C 0.0 **** -0.24
13442 H 81.47663390504144 41.27624723615051 45.794669223776545 H 0.0 **** 0.06
13443 H 82.62355495490931 39.91691818054852 45.721214973105965 H 0.0 **** 0.06
13444 H 81.96617101799865 40.610312723643375 44.21854122353676 H 0.0 **** 0.06
13445 H 80.91271868818484 39.662829751746585 45.29702822768877 H 0.0 **** 0.06
13446 C 95.12457090672548 26.050937263821794 99.65063471848495 C 0.0 **** -0.24
13447 H 94.28666500482929 25.643199685104292 100.21641602949401 H 0.0 **** 0.06
13448 H 95.08984791376193 27.139967766232473 99.68503821177185 H 0.0 **** 0.06
13449 H 95.06099753735448 25.71677662902337 98.61540152401321 H 0.0 **** 0.06
13450 H 96.06019142659017 25.70231014547329 100.08875356495952 H 0.0 **** 0.06
13451 C 121.01054242348488 57.279801697431935 13.43160132086581 C 0.0 **** -0.24
13452 H 120.03310339864154 57.453814481356375 12.980413697268474 H 0.0 **** 0.06
13453 H 120.89048932151499 56.69225294174376 14.341676815899604 H 0.0 **** 0.06
13454 H 121.4732555417363 58.236406860052114 13.67358235587642 H 0.0 **** 0.06
13455 H 121.64307694773153 56.737369592093415 12.729133401851271 H 0.0 **** 0.06
13456 C 107.68941190522314 117.06096583932475 87.59009099334315 C 0.0 **** -0.24
13457 H 108.31204886863749 116.17266599734825 87.69780971611004 H 0.0 **** 0.06
13458 H 107.5133612065223 117.25501279480784 86.53127149702118 H 0.0 **** 0.06
13459 H 108.19682365657914 117.91548889009772 88.03616195156542 H 0.0 **** 0.06
13460 H 106.73635679635589 116.89908216377034 88.09389289357631 H 0.0 **** 0.06
13461 C 95.25353560166141 112.60502363649363 123.79427318129999 C 0.0 **** -0.24
13462 H 95.08215670828386 112.36559182662761 122.74446775778222 H 0.0 **** 0.06
13463 H 96.31756373950542 112.52681191558747 124.01514803202967 H 0.0 **** 0.06
13464 H 94.69981649790597 111.9058074319886 124.42075267357825 H 0.0 **** 0.06
13465 H 94.91311238929013 113.62077787519262 123.99547972074954 H 0.0 **** 0.06
13466 C 116.36335310750528 24.902112703657394 28.53523537447606 C 0.0 **** -0.24
13467 H 115.85646547131128 24.059088489579466 29.00530753075364 H 0.0 **** 0.06
13468 H 115.78121205458046 25.809747382211043 28.69415291076521 H 0.0 **** 0.06
13469 H 116.46312637364059 24.71545662634577 27.466293151846912 H 0.0 **** 0.06
13470 H 117.3528298425075 25.022217931221434 28.977465273327113 H 0.0 **** 0.06
13471 C 91.64363917526182 32.352048294696544 61.91295914687471 C 0.0 **** -0.24
13472 H 91.14053961902098 33.22964706111452 62.318653535119196 H 0.0 **** 0.06
13473 H 91.53991594914223 32.343120097186954 60.82748204433322 H 0.0 **** 0.06
13474 H 91.19144622208384 31.451617393627714 62.32812345948068 H 0.0 **** 0.06
13475 H 92.70044647168831 32.384020069531346 62.17729762571321 H 0.0 **** 0.06
13476 C 99.46850963685833 103.2347994060248 30.51227654298512 C 0.0 **** -0.24
13477 H 98.95369856709466 103.53254636034909 29.59855336500638 H 0.0 **** 0.06
13478 H 99.80755402540552 104.12420167382261 31.04386119358435 H 0.0 **** 0.06
13479 H 100.32662638505604 102.61259524392112 30.260184738481 H 0.0 **** 0.06
13480 H 98.78433667034462 102.67144390106128 31.14689504205444 H 0.0 **** 0.06
13481 C 108.79366192532785 30.85493983619574 111.3642021963046 C 0.0 **** -0.24
13482 H 107.72378110787724 30.66987801164902 111.46349922285697 H 0.0 **** 0.06
13483 H 109.32390525249116 30.361651389080578 112.17902134564235 H 0.0 **** 0.06
13484 H 108.98140483915415 31.927944599637215 111.4049341332589 H 0.0 **** 0.06
13485 H 109.14354631358668 30.461019619137346 110.41054584927994 H 0.0 **** 0.06
13486 C 39.250661176385506 121.39504509581784 84.78482020109377 C 0.0 **** -0.24
13487 H 40.163764531535065 121.47108687666733 84.19390172040974 H 0.0 **** 0.06
13488 H 39.30599742377589 120.51513406553312 85.42647371743234 H 0.0 **** 0.06
13489 H 38.39413218232889 121.30428299054506 84.11781273586647 H 0.0 **** 0.06
13490 H 39.14066200485851 122.28719792463038 85.39960805610426 H 0.0 **** 0.06
13491 C 119.70508843273643 21.447033789995345 44.61472959455776 C 0.0 **** -0.24
13492 H 119.1553017281525 22.173329334695836 45.212778114632556 H 0.0 **** 0.06
13493 H 120.00730403778212 20.61078390743154 45.24548516560088 H 0.0 **** 0.06
13494 H 120.59000396864369 21.921178676974648 44.19031962446283 H 0.0 **** 0.06
13495 H 119.06652116912626 21.082494887531425 43.80879159595591 H 0.0 **** 0.06
13496 C 65.0477896541615 73.8749221421871 83.06518431270138 C 0.0 **** -0.24
13497 H 65.0033036065056 72.95873693787766 82.47553829922714 H 0.0 **** 0.06
13498 H 64.32399102683249 74.59172290005526 82.67794678494522 H 0.0 **** 0.06
13499 H 66.05006752396272 74.29876321188297 83.00091504508487 H 0.0 **** 0.06
13500 H 64.81558226814772 73.64812219102882 84.1057712736253 H 0.0 **** 0.06
13501 C 46.26963252025712 115.74091170833418 97.75223268555762 C 0.0 **** -0.24
13502 H 46.266410016384214 116.63275372214122 98.37846915535782 H 0.0 **** 0.06
13503 H 45.775783713316486 115.96014230365392 96.80531767589258 H 0.0 **** 0.06
13504 H 45.73837921223263 114.93742347993464 98.2614450616423 H 0.0 **** 0.06
13505 H 47.2983821429161 115.43399890584698 97.56252903667462 H 0.0 **** 0.06
13506 C 32.097529148012384 80.21314371345841 61.55659218737992 C 0.0 **** -0.24
13507 H 32.567729988235854 80.7053543080032 60.70486591396843 H 0.0 **** 0.06
13508 H 32.80521051412148 79.52072913468473 62.011907257728694 H 0.0 **** 0.06
13509 H 31.217673783220285 79.66505476006824 61.21877156381913 H 0.0 **** 0.06
13510 H 31.79888075165688 80.96292308641162 62.289273385831336 H 0.0 **** 0.06
13511 C 24.687321599731348 100.24430157443265 19.68814416526716 C 0.0 **** -0.24
13512 H 24.98853205994598 101.1506833695841 19.163589144122213 H 0.0 **** 0.06
13513 H 24.52920832201164 99.4424504855819 18.965872185799185 H 0.0 **** 0.06
13514 H 23.760790808156827 100.43108174955154 20.231737400184045 H 0.0 **** 0.06
13515 H 25.468876457573998 99.95361706206086 20.38993630779919 H 0.0 **** 0.06
13516 C 105.65268563045538 49.534315015072764 91.2996323887339 C 0.0 **** -0.24
13517 H 106.12200144870239 48.851974263295176 92.00809724345615 H 0.0 **** 0.06
13518 H 104.59726283360446 49.64614025392035 91.5479457830525 H 0.0 **** 0.06
13519 H 105.74872471102827 49.133179879588 90.29107462475498 H 0.0 **** 0.06
13520 H 106.14336346152217 50.50696977716245 91.35331453488658 H 0.0 **** 0.06
13521 C 53.563966281718606 5.956216576980744 69.72425778999727 C 0.0 **** -0.24
13522 H 53.53777425005812 4.898028386111125 69.98531805883508 H 0.0 **** 0.06
13523 H 52.72543640675087 6.187888715323854 69.06723998488329 H 0.0 **** 0.06
13524 H 54.5001727132356 6.181677583729318 69.2130772085207 H 0.0 **** 0.06
13525 H 53.491017583252074 6.555326401375936 70.63166540960268 H 0.0 **** 0.06
13526 C 89.46747517769107 112.82033544490713 11.635534333730511 C 0.0 **** -0.24
13527 H 88.48638111594886 112.46625932223282 11.318671177186559 H 0.0 **** 0.06
13528 H 89.3921415241413 113.25507153775072 12.632109500400638 H 0.0 **** 0.06
13529 H 89.82578704523557 113.5746705300464 10.93506028683354 H 0.0 **** 0.06
13530 H 90.165858407798 111.98320608918579 11.65568519414466 H 0.0 **** 0.06
13531 C 76.48977233908556 99.83320095367839 41.12874064516549 C 0.0 **** -0.24
13532 H 76.89902625842211 99.48445236304173 40.18058435121446 H 0.0 **** 0.06
13533 H 76.26247826302517 100.89692520404981 41.057236526419075 H 0.0 **** 0.06
13534 H 77.21968890624942 99.66892655942843 41.92097381642722 H 0.0 **** 0.06
13535 H 75.57711903666171 99.28063877439104 41.35394664341777 H 0.0 **** 0.06
13536 C 117.22102359266731 120.42320676730594 42.02795755147295 C 0.0 **** -0.24
13537 H 117.35622078984842 121.34508357046434 42.59322701046182 H 0.0 **** 0.06
13538 H 117.91106893199971 120.40989457355053 41.184148962011676 H 0.0 **** 0.06
13539 H 116.19607532534137 120.36999008619492 41.66056844821159 H 0.0 **** 0.06
13540 H 117.41982953528182 119.56828784797722 42.673965698487166 H 0.0 **** 0.06
13541 C 79.57176948568629 41.932518385323945 76.44929090381756 C 0.0 **** -0.24
13542 H 79.1730368788754 41.029937883865884 75.9849004239259 H 0.0 **** 0.06
13543 H 80.6362953798766 41.800227855472734 76.64433340819478 H 0.0 **** 0.06
13544 H 79.04998584676157 42.118872186004225 77.38758763929529 H 0.0 **** 0.06
13545 H 79.42704089632215 42.78014097085378 75.77817810691903 H 0.0 **** 0.06
13546 C 14.668282416742809 25.140147343725495 33.68215071284038 C 0.0 **** -0.24
13547 H 13.686003564593136 24.807525994543255 34.01680870198817 H 0.0 **** 0.06
13548 H 14.617014860955493 26.18962669985106 33.3912117899298 H 0.0 **** 0.06
13549 H 14.981917108706895 24.540807325767958 32.82667213302676 H 0.0 **** 0.06
13550 H 15.388092379889166 25.022219635430197 34.4919552351264 H 0.0 **** 0.06
13551 C 2.7303579284421033 90.62528782037226 102.8470443672972 C 0.0 **** -0.24
13552 H 3.0707353102668975 91.65243519331766 102.7160015612335 H 0.0 **** 0.06
13553 H 3.5408055113686885 90.02509962934329 103.26082881197732 H 0.0 **** 0.06
13554 H 2.4304648455494373 90.21570019467511 101.88170768944042 H 0.0 **** 0.06
13555 H 1.8803432920796865 90.60874223771 103.52894909093567 H 0.0 **** 0.06
13556 C 73.638071198127 81.20555500232035 42.309444255442486 C 0.0 **** -0.24
13557 H 72.61477206660183 80.86594237200731 42.46599391508522 H 0.0 **** 0.06
13558 H 74.19524535358516 80.44031992082836 41.766473644212056 H 0.0 **** 0.06
13559 H 74.11338302668065 81.38470798936635 43.274151263155005 H 0.0 **** 0.06
13560 H 73.63072717785776 82.12876935810519 41.729953073170606 H 0.0 **** 0.06
13561 C 103.62991163827195 121.98984670780158 63.20360495384895 C 0.0 **** -0.24
13562 H 103.7919492937167 122.44955977287671 64.17914863103883 H 0.0 **** 0.06
13563 H 103.55943191499802 122.76781039630868 62.44273185684267 H 0.0 **** 0.06
13564 H 102.7044789667404 121.41485626107956 63.22228717624142 H 0.0 **** 0.06
13565 H 104.46451913961175 121.32901041626397 62.970453937499514 H 0.0 **** 0.06
13566 C 60.475448774587136 93.61824638616946 12.232138926635571 C 0.0 **** -0.24
13567 H 59.80158026475823 94.41560656769602 11.917509428971186 H 0.0 **** 0.06
13568 H 59.89758310634947 92.71690817814428 12.442359148208553 H 0.0 **** 0.06
13569 H 61.007692615180304 93.92735106849544 13.131671855705761 H 0.0 **** 0.06
13570 H 61.19236956920125 93.41411329234361 11.437656142624164 H 0.0 **** 0.06
13571 C 92.66764449732382 2.890185310363961 54.32974413853577 C 0.0 **** -0.24
13572 H 92.31222345651867 1.8622101576146832 54.39276491741185 H 0.0 **** 0.06
13573 H 91.86135321360372 3.5326470075114997 53.97536149338828 H 0.0 **** 0.06
13574 H 93.5067978641737 2.942929278437674 53.63586199759911 H 0.0 **** 0.06
13575 H 92.99031158759612 3.224237054168796 55.31651926973524 H 0.0 **** 0.06
13576 C 16.43749210959956 4.772266813514449 25.446451733297778 C 0.0 **** -0.24
13577 H 16.583395276323813 4.02861416771853 24.663713810667836 H 0.0 **** 0.06
13578 H 15.54885978077479 5.363563718325139 25.2239358918795 H 0.0 **** 0.06
13579 H 17.30755023259016 5.427270762353004 25.491744068541287 H 0.0 **** 0.06
13580 H 16.309629702218984 4.270600402134164 26.40508965486829 H 0.0 **** 0.06
13581 C 102.06501148247219 102.84089639194539 89.91902303357483 C 0.0 **** -0.24
13582 H 101.93017741336772 102.09667549419939 89.1339467623526 H 0.0 **** 0.06
13583 H 101.12406341013877 102.9827428620946 90.45110764975345 H 0.0 **** 0.06
13584 H 102.37625484885973 103.78595697790803 89.47372002015754 H 0.0 **** 0.06
13585 H 102.82947632137578 102.49862798074096 90.61641212245377 H 0.0 **** 0.06
13586 C 18.542909846411305 96.9078022618548 90.31509864815285 C 0.0 **** -0.24
13587 H 17.89961340462156 97.68332207161454 90.730229220973 H 0.0 **** 0.06
13588 H 18.249152508950772 96.70555081045819 89.28483183152008 H 0.0 **** 0.06
13589 H 18.444166821430713 95.99826135937916 90.90666843107454 H 0.0 **** 0.06
13590 H 19.57929517337817 97.24443912986621 90.33743181413456 H 0.0 **** 0.06
13591 C 11.101536060613856 23.41732813102024 118.84831043264859 C 0.0 **** -0.24
13592 H 11.264366875334055 23.55139220127714 119.91695937961731 H 0.0 **** 0.06
13593 H 10.139491805699972 22.931113321253264 118.68514566385497 H 0.0 **** 0.06
13594 H 11.89713826614577 22.79679047273902 118.43564366004554 H 0.0 **** 0.06
13595 H 11.106364840557362 24.389731731012546 118.35483228435216 H 0.0 **** 0.06
13596 C 16.548681250521895 120.85345236325671 44.8376328229578 C 0.0 **** -0.24
13597 H 16.862267807151312 120.74111673782699 43.79968634273161 H 0.0 **** 0.06
13598 H 15.505257007919283 121.16853985064184 44.869796203529305 H 0.0 **** 0.06
13599 H 17.16994314764557 121.60487421920972 45.324549175586874 H 0.0 **** 0.06
13600 H 16.657212416180812 119.9003950260302 45.35456256945108 H 0.0 **** 0.06
13601 C 53.38906662452506 52.35389258124634 9.516610383885904 C 0.0 **** -0.24
13602 H 52.385016234027376 52.52890234671426 9.903875326138063 H 0.0 **** 0.06
13603 H 53.9079637033754 53.306683416082365 9.409329542403782 H 0.0 **** 0.06
13604 H 53.323096033870016 51.8645664230003 8.54431950414903 H 0.0 **** 0.06
13605 H 53.938278868643394 51.715029413243265 10.207824128888404 H 0.0 **** 0.06
13606 C 97.20897008555389 112.6452904314875 33.94913842777797 C 0.0 **** -0.24
13607 H 96.45217275740038 111.96114111967375 34.33241144896252 H 0.0 **** 0.06
13608 H 96.80163684086281 113.65614056095248 33.9165441331877 H 0.0 **** 0.06
13609 H 97.5009091690218 112.33801978326446 32.94525746332383 H 0.0 **** 0.06
13610 H 98.08106209973647 112.62542917927112 34.6036839375993 H 0.0 **** 0.06
13611 C 111.53319004818908 80.16796657524841 4.377994087775733 C 0.0 **** -0.24
13612 H 111.73406834687273 79.09716295197595 4.39517465260721 H 0.0 **** 0.06
13613 H 112.3992060819863 80.70693704318879 4.763222347794965 H 0.0 **** 0.06
13614 H 110.66447493599631 80.3843464190284 5.000507198253018 H 0.0 **** 0.06
13615 H 111.3337570789578 80.48396570025697 3.3541353373472305 H 0.0 **** 0.06
13616 C 8.15419504500522 91.57309179322223 93.28628367198468 C 0.0 **** -0.24
13617 H 8.639975429478596 91.8562877706476 94.21970915339841 H 0.0 **** 0.06
13618 H 7.0839531298668135 91.76836226575114 93.35867448290065 H 0.0 **** 0.06
13619 H 8.318234313648624 90.51169005631263 93.09815015606324 H 0.0 **** 0.06
13620 H 8.575834703275227 92.15657824283036 92.46680801124563 H 0.0 **** 0.06
13621 C 60.02423316336069 89.82422333680714 2.0487613750747187 C 0.0 **** -0.24
13622 H 59.57261702325076 88.95777636841217 2.5316083542914214 H 0.0 **** 0.06
13623 H 59.34470435340006 90.21376919666645 1.2905322913419752 H 0.0 **** 0.06
13624 H 60.96326605688722 89.53060992690862 1.5797612797235558 H 0.0 **** 0.06
13625 H 60.21755346686922 90.59537845619556 2.7946030214757513 H 0.0 **** 0.06
13626 C 6.437649590630542 101.46879513725503 47.18579071834786 C 0.0 **** -0.24
13627 H 7.435786756692071 101.41573438531219 46.750897089968504 H 0.0 **** 0.06
13628 H 5.990901349614237 100.47417665690878 47.1924116849174 H 0.0 **** 0.06
13629 H 5.818489859753271 102.14201177958674 46.59281239446966 H 0.0 **** 0.06
13630 H 6.506686607930327 101.84263110095284 48.207106165632965 H 0.0 **** 0.06
13631 C 11.085813445208572 9.097375652348035 108.40368222004767 C 0.0 **** -0.24
13632 H 10.474270939565656 9.72189585637318 109.05552578173258 H 0.0 **** 0.06
13633 H 11.977920897750352 9.648649776592208 108.10487979286466 H 0.0 **** 0.06
13634 H 10.511768449567569 8.825213119600164 107.51793416989594 H 0.0 **** 0.06
13635 H 11.378474119754088 8.1939866510113 108.93868478346054 H 0.0 **** 0.06
13636 C 55.30996858788497 32.46425339138292 86.5524066143457 C 0.0 **** -0.24
13637 H 55.69100640440115 32.63788554215119 87.55892128495246 H 0.0 **** 0.06
13638 H 55.83900880490536 31.622712219486104 86.1044996556406 H 0.0 **** 0.06
13639 H 55.46569876837515 33.35659510841772 85.94558529539957 H 0.0 **** 0.06
13640 H 54.244612105756616 32.23965042948744 86.60149600755604 H 0.0 **** 0.06
13641 C 21.63212807744128 8.95328672575403 23.299149466530423 C 0.0 **** -0.24
13642 H 22.049589971410796 8.869967359524694 24.30225420762487 H 0.0 **** 0.06
13643 H 22.412607438658256 8.758272559884961 22.56380047528245 H 0.0 **** 0.06
13644 H 21.23812022944253 9.9587376024407 23.15251033628101 H 0.0 **** 0.06
13645 H 20.829153024331617 8.226916083410256 23.178756794767537 H 0.0 **** 0.06
13646 C 4.477173819176102 61.39211188831386 52.37869461208594 C 0.0 **** -0.24
13647 H 5.061155246166834 62.301158569751124 52.5240237330235 H 0.0 **** 0.06
13648 H 3.5532929605250843 61.458450488708635 52.95340502962213 H 0.0 **** 0.06
13649 H 5.055093761059879 60.53135637065225 52.717265524540124 H 0.0 **** 0.06
13650 H 4.240489026780864 61.27776843100159 51.32114907765134 H 0.0 **** 0.06
13651 C 11.207759384859656 80.38393963884278 12.193255954929185 C 0.0 **** -0.24
13652 H 11.75753067676709 80.91757612132722 12.96843872608136 H 0.0 **** 0.06
13653 H 11.902135588871317 80.04802381444665 11.422505668326181 H 0.0 **** 0.06
13654 H 10.466455210788752 81.04836795949797 11.750617533436838 H 0.0 **** 0.06
13655 H 10.706789413976665 79.52041477221724 12.632235073894776 H 0.0 **** 0.06
13656 C 80.99731357427892 70.6642436380099 88.25794031161449 C 0.0 **** -0.24
13657 H 80.47415783373687 69.70687876994586 88.26602769031255 H 0.0 **** 0.06
13658 H 80.27762519095927 71.47233308363926 88.38803171837877 H 0.0 **** 0.06
13659 H 81.51304884173179 70.78688087744175 87.3048841670097 H 0.0 **** 0.06
13660 H 81.72315714378081 70.68757157482426 89.0697448058176 H 0.0 **** 0.06
13661 C 40.01553236173578 71.75900760403977 9.536457917935024 C 0.0 **** -0.24
13662 H 40.456041695822705 71.4723655511857 10.491433086126676 H 0.0 **** 0.06
13663 H 39.90952883397381 70.87571109141456 8.905480652674868 H 0.0 **** 0.06
13664 H 40.66125651754186 72.48355572470771 9.040898627161312 H 0.0 **** 0.06
13665 H 39.035582814385464 72.20274203453874 9.70759605051282 H 0.0 **** 0.06
13666 C 24.15917880241124 70.58060435783295 112.05966606326233 C 0.0 **** -0.24
13667 H 24.8046244465246 71.21973873245469 112.6614815120095 H 0.0 **** 0.06
13668 H 24.59922910693507 69.5846891688422 111.98812231901921 H 0.0 **** 0.06
13669 H 24.055929501068988 71.00587295833088 111.06114368953097 H 0.0 **** 0.06
13670 H 23.177884288943716 70.51109676271864 112.52814811540954 H 0.0 **** 0.06
13671 C 63.80407507265434 93.06425654803013 101.56560583605312 C 0.0 **** -0.24
13672 H 64.50259246104743 92.8314399637033 102.36961493290175 H 0.0 **** 0.06
13673 H 64.17931385783729 92.6518228709412 100.62889454885448 H 0.0 **** 0.06
13674 H 63.70479317169695 94.1452950772566 101.47280790254564 H 0.0 **** 0.06
13675 H 62.83161558311265 92.6271739452119 101.79162138961951 H 0.0 **** 0.06
13676 C 51.66309733765441 58.849765578293216 65.9409380006087 C 0.0 **** -0.24
13677 H 50.753357497460264 59.02879388607093 65.36679075409529 H 0.0 **** 0.06
13678 H 51.399483195624235 58.58294069415078 66.9645174007976 H 0.0 **** 0.06
13679 H 52.273143643309794 59.75186555409758 65.9459110374998 H 0.0 **** 0.06
13680 H 52.224260141304086 58.03360222359865 65.48556298055968 H 0.0 **** 0.06
13681 C 102.3338656055575 40.122706689832 15.698293761366102 C 0.0 **** -0.24
13682 H 101.51025290109253 39.441042086859994 15.909436275927249 H 0.0 **** 0.06
13683 H 101.98651923538944 41.15128032985314 15.788162540672403 H 0.0 **** 0.06
13684 H 102.69846963412854 39.948535050085326 14.685483364255902 H 0.0 **** 0.06
13685 H 103.14170284016573 39.9475696702506 16.409879888031213 H 0.0 **** 0.06
13686 C 104.67022634458277 23.8425414199055 115.71021361822339 C 0.0 **** -0.24
13687 H 103.79060102866526 23.785687569615327 115.06844910562087 H 0.0 **** 0.06
13688 H 105.53506530982628 23.44723547333266 115.1766964955821 H 0.0 **** 0.06
13689 H 104.49899665982878 23.255168061968966 116.61238968105921 H 0.0 **** 0.06
13690 H 104.85432424901097 24.881610396398308 115.98299434226415 H 0.0 **** 0.06
13691 C 38.760839939070394 23.43940845940992 59.29459820982632 C 0.0 **** -0.24
13692 H 37.76265751413 23.266851293452845 58.890894565197044 H 0.0 **** 0.06
13693 H 38.90418794637141 22.823929578060614 60.183148627321344 H 0.0 **** 0.06
13694 H 38.86850377659144 24.491257073930285 59.55853697645375 H 0.0 **** 0.06
13695 H 39.50590946405029 23.175042246274018 58.54528417093178 H 0.0 **** 0.06
13696 C 2.398283451254761 91.18507767094968 106.73265773767218 C 0.0 **** -0.24
13697 H 3.1624074156784268 90.8455492788681 107.43234036442773 H 0.0 **** 0.06
13698 H 1.753587463674119 90.3470736888976 106.4646237775592 H 0.0 **** 0.06
13699 H 2.8767348473330774 91.57730896183178 105.83562287369196 H 0.0 **** 0.06
13700 H 1.8016083151331284 91.9679067834577 107.19989859514962 H 0.0 **** 0.06
13701 C 63.30586758380754 88.3253167679742 51.57333298063068 C 0.0 **** -0.24
13702 H 63.80300293965074 89.18143967229443 51.115496979860325 H 0.0 **** 0.06
13703 H 62.72748176986002 88.66032100776174 52.434414116673935 H 0.0 **** 0.06
13704 H 64.053645326694 87.60103511409429 51.896090212606936 H 0.0 **** 0.06
13705 H 62.64007088337664 87.86167491223102 50.84623351900049 H 0.0 **** 0.06
13706 C 108.67412478861775 26.730340603988118 84.60106274470132 C 0.0 **** -0.24
13707 H 109.55421182398267 26.115128849511706 84.78728571259319 H 0.0 **** 0.06
13708 H 108.47559512038438 27.35305086439717 85.47356983816964 H 0.0 **** 0.06
13709 H 107.81472303035035 26.08567007822291 84.41124875502169 H 0.0 **** 0.06
13710 H 108.85078827931811 27.36490963461067 83.73349961705911 H 0.0 **** 0.06
13711 C 77.01931701917101 71.86739963983575 101.01342143219874 C 0.0 **** -0.24
13712 H 76.79528094593798 71.61088868501952 99.97853080257023 H 0.0 **** 0.06
13713 H 76.10157047316478 72.16618043017468 101.52025083139775 H 0.0 **** 0.06
13714 H 77.73268695595699 72.69052700865063 101.0376147589037 H 0.0 **** 0.06
13715 H 77.44720179199466 71.00069740038975 101.51715405090617 H 0.0 **** 0.06
13716 C 77.49437858788332 116.24420566701747 101.97150130481049 C 0.0 **** -0.24
13717 H 76.54673970946169 115.94108981979358 102.41645190250335 H 0.0 **** 0.06
13718 H 77.37681193862437 116.3348773340241 100.89186691540507 H 0.0 **** 0.06
13719 H 78.2560616127696 115.49630611933122 102.19347873617792 H 0.0 **** 0.06
13720 H 77.79850014349756 117.20637217839612 102.38651397795641 H 0.0 **** 0.06
13721 C 91.16125386603592 5.980087120827534 47.817960826179004 C 0.0 **** -0.24
13722 H 92.2202633756263 6.198624748217782 47.68156119887526 H 0.0 **** 0.06
13723 H 90.97949470998438 4.9240478591422345 47.61361431539163 H 0.0 **** 0.06
13724 H 90.57238268986701 6.589696899015394 47.132136214535834 H 0.0 **** 0.06
13725 H 90.87197994536773 6.205952582152548 48.84483723378477 H 0.0 **** 0.06
13726 C 43.1716256245835 36.66578655178892 96.48035222710172 C 0.0 **** -0.24
13727 H 44.097125574205734 36.29774986707034 96.03624006802448 H 0.0 **** 0.06
13728 H 42.45844737542615 36.901459922153094 95.69002786919151 H 0.0 **** 0.06
13729 H 43.380328482759865 37.56300838371461 97.06143544620107 H 0.0 **** 0.06
13730 H 42.751992027799474 35.89919047686456 97.13268256785514 H 0.0 **** 0.06
13731 C 122.55297135128403 47.01803979338743 20.16657391222705 C 0.0 **** -0.24
13732 H 122.00876316816719 46.40315092882972 20.884299426112506 H 0.0 **** 0.06
13733 H 122.02864704966984 47.010012641681044 19.211100580154408 H 0.0 **** 0.06
13734 H 123.55775403825518 46.61621701720671 20.03323241617673 H 0.0 **** 0.06
13735 H 122.61527687270822 48.04021490395388 20.538248105688638 H 0.0 **** 0.06
13736 C 56.63583447780687 77.04772165054548 102.4392679047175 C 0.0 **** -0.24
13737 H 56.0109210130895 76.7927895026573 103.294797233851 H 0.0 **** 0.06
13738 H 56.81500899617144 76.15391178776534 101.84098271068683 H 0.0 **** 0.06
13739 H 57.588160134671654 77.4470174853903 102.79113222156764 H 0.0 **** 0.06
13740 H 56.13081854464576 77.79766013948945 101.83069838427878 H 0.0 **** 0.06
13741 C 30.792662040070468 48.15131546264038 122.52849071506421 C 0.0 **** -0.24
13742 H 31.5105607269291 48.604458439820235 123.21209558702284 H 0.0 **** 0.06
13743 H 30.21956797457983 48.936124989775074 122.03346851820422 H 0.0 **** 0.06
13744 H 30.116603910382423 47.50532430718465 123.08808209027264 H 0.0 **** 0.06
13745 H 31.32411517134517 47.56251947561947 121.78170996249844 H 0.0 **** 0.06
13746 C 95.70295096460922 49.74136840828942 121.73213471687114 C 0.0 **** -0.24
13747 H 96.57488580617417 50.229561343708326 122.16765969515706 H 0.0 **** 0.06
13748 H 94.84021063310996 49.89123401687414 122.38311187328456 H 0.0 **** 0.06
13749 H 95.89895923128859 48.67451917756114 121.62650722936618 H 0.0 **** 0.06
13750 H 95.49684652581823 50.17274887763824 120.75247683346937 H 0.0 **** 0.06
13751 C 123.076813174895 121.12475463165195 103.31479168542819 C 0.0 **** -0.24
13752 H 122.01823844237306 121.18614648525379 103.56519181839877 H 0.0 **** 0.06
13753 H 123.19791703651882 121.17918611281527 102.23211497116716 H 0.0 **** 0.06
13754 H 123.48256436564094 120.18119584431703 103.67955803143508 H 0.0 **** 0.06
13755 H 123.60886093762608 121.95339345982968 103.78202564556642 H 0.0 **** 0.06
13756 C 118.7661067845823 54.241878178453234 109.92338779087055 C 0.0 **** -0.24
13757 H 118.69511556909403 55.18315659597124 110.46852988396313 H 0.0 **** 0.06
13758 H 118.55589039004218 54.416900833117154 108.86747447308915 H 0.0 **** 0.06
13759 H 118.04139208805807 53.53299927231048 110.32495604044894 H 0.0 **** 0.06
13760 H 119.77076936504017 53.83477034995076 110.0305136035364 H 0.0 **** 0.06
13761 C 22.667047359128674 54.738028550626794 104.39727718250367 C 0.0 **** -0.24
13762 H 23.117620228999613 53.92369448416285 103.82951592459324 H 0.0 **** 0.06
13763 H 23.414286491328994 55.173538268798524 105.06183023198923 H 0.0 **** 0.06
13764 H 21.835833853145004 54.35222705881519 104.988133395635 H 0.0 **** 0.06
13765 H 22.301691202350753 55.50129397813312 103.7108965130816 H 0.0 **** 0.06
13766 C 27.613580650152997 105.50048070071945 19.80966454207794 C 0.0 **** -0.24
13767 H 28.516361591170593 104.89304739625122 19.873821072107084 H 0.0 **** 0.06
13768 H 27.691058534277417 106.17721382680443 18.95906467857374 H 0.0 **** 0.06
13769 H 27.499153430544155 106.07826478004282 20.726777769542515 H 0.0 **** 0.06
13770 H 26.748231158803478 104.85059141896997 19.67994221710524 H 0.0 **** 0.06
13771 C 95.3465460990957 97.78805529074847 100.57519721959622 C 0.0 **** -0.24
13772 H 96.19241815435304 98.19039887066376 100.01794161686107 H 0.0 **** 0.06
13773 H 95.14937227840316 98.4198233584273 101.44085954487318 H 0.0 **** 0.06
13774 H 95.57933280671827 96.77635250096282 100.90700515542656 H 0.0 **** 0.06
13775 H 94.46607464567313 97.76656238241026 99.93213047193214 H 0.0 **** 0.06
13776 C 123.43949235314469 56.85127807211404 30.331631574074777 C 0.0 **** -0.24
13777 H 123.54164672858317 56.582063405558415 31.382673260712465 H 0.0 **** 0.06
13778 H 124.36076360682331 56.60630220325663 29.802266997451227 H 0.0 **** 0.06
13779 H 123.24515948684675 57.91990269923576 30.247246842009247 H 0.0 **** 0.06
13780 H 122.61030129485442 56.29604522682337 29.892805412703694 H 0.0 **** 0.06
13781 C 58.086494208285984 65.71575298450517 67.95492332096987 C 0.0 **** -0.24
13782 H 58.42229576231733 65.2419489652803 68.87680222935276 H 0.0 **** 0.06
13783 H 58.89884641400512 66.30841986165007 67.53391311839047 H 0.0 **** 0.06
13784 H 57.23597706333476 66.36453680175345 68.16872920049781 H 0.0 **** 0.06
13785 H 57.78758735154011 64.94866553621603 67.23997696746073 H 0.0 **** 0.06
13786 C 61.438748398426995 70.35329083990894 70.0016343909545 C 0.0 **** -0.24
13787 H 62.4762706834571 70.02625161374755 69.92770468793931 H 0.0 **** 0.06
13788 H 61.36324379454699 71.15540069870076 70.73668514078953 H 0.0 **** 0.06
13789 H 60.81530559578799 69.51484557320151 70.3117654926642 H 0.0 **** 0.06
13790 H 61.10258211902239 70.71624784432817 69.03022553392171 H 0.0 **** 0.06
13791 C 40.564786897036754 1.207278824980989 118.87998901938688 C 0.0 **** -0.24
13792 H 41.13151355716161 1.378353734265417 117.9649546181703 H 0.0 **** 0.06
13793 H 39.5459849187022 0.9130080724253844 118.62719269959149 H 0.0 **** 0.06
13794 H 40.54328552183392 2.122984905749675 119.47071125739019 H 0.0 **** 0.06
13795 H 41.04033169792126 0.4139467322532937 119.45776934692952 H 0.0 **** 0.06
13796 C 110.63405719316872 31.388454564597133 42.293706207474216 C 0.0 **** -0.24
13797 H 111.24006740063066 31.106426306198088 43.15506584813798 H 0.0 **** 0.06
13798 H 110.87836239428819 32.408700770997044 41.9965220942174 H 0.0 **** 0.06
13799 H 109.57842081253123 31.32955701434102 42.55764291426763 H 0.0 **** 0.06
13800 H 110.84157709174342 30.70940769844355 41.465894257727 H 0.0 **** 0.06
13801 C 111.75567021232956 101.57495696484547 85.57805635563176 C 0.0 **** -0.24
13802 H 112.51987565020607 102.04032224617515 84.95562571295625 H 0.0 **** 0.06
13803 H 110.83633836908439 102.15751989756502 85.52000389024778 H 0.0 **** 0.06
13804 H 112.10027295042914 101.5416851661656 86.61176021236258 H 0.0 **** 0.06
13805 H 111.56675938412002 100.56090340827599 85.22427273972232 H 0.0 **** 0.06
13806 C 95.8723666368873 53.47722044393868 35.09054715626464 C 0.0 **** -0.24
13807 H 96.2459001639779 52.65357948777799 35.699228520155344 H 0.0 **** 0.06
13808 H 94.92872653228139 53.18683099379433 34.62668928343522 H 0.0 **** 0.06
13809 H 96.60051600570117 53.714787659143894 34.31624171304526 H 0.0 **** 0.06
13810 H 95.71257385631745 54.351542819708015 35.721193122978356 H 0.0 **** 0.06
13811 C 122.36835646917534 8.103309572367003 34.47691991967628 C 0.0 **** -0.24
13812 H 123.1343064156165 8.365675527507026 33.74705589239235 H 0.0 **** 0.06
13813 H 122.84258574318444 7.71074414017199 35.37600425611751 H 0.0 **** 0.06
13814 H 121.70778003223622 7.3461664910024 34.05355497870519 H 0.0 **** 0.06
13815 H 121.78857140240034 8.991164139913053 34.72941992985065 H 0.0 **** 0.06
13816 C 59.82602047208712 64.38451372744794 62.98217516112285 C 0.0 **** -0.24
13817 H 60.2396084914547 64.70475172366505 62.02440512883845 H 0.0 **** 0.06
13818 H 59.59166554443476 65.26090467105752 63.58628308165294 H 0.0 **** 0.06
13819 H 60.55767439685525 63.76675514309309 63.50408093676626 H 0.0 **** 0.06
13820 H 58.91830272591193 63.8075835566745 62.810033681931 H 0.0 **** 0.06
13821 C 25.52789236005772 70.07198228480758 8.1769952408319 C 0.0 **** -0.24
13822 H 26.50765167319298 70.34803601871471 7.786426729256789 H 0.0 **** 0.06
13823 H 25.42539255274947 70.44385536058547 9.196232645619716 H 0.0 **** 0.06
13824 H 25.428462009879325 68.98664257173084 8.172871280026754 H 0.0 **** 0.06
13825 H 24.751103787988285 70.51063794176702 7.54973492896238 H 0.0 **** 0.06
13826 C 101.69752578380738 39.307042492453945 113.7653667334539 C 0.0 **** -0.24
13827 H 101.09872044940931 39.886331234569866 113.06301397561657 H 0.0 **** 0.06
13828 H 101.94060655020144 39.92539691417596 114.63087894543365 H 0.0 **** 0.06
13829 H 102.61828755348017 38.983973257288255 113.27903683357565 H 0.0 **** 0.06
13830 H 101.13236351257876 38.433482247569714 114.09052641796437 H 0.0 **** 0.06
13831 C 75.96979585764359 25.46945156715075 7.180557637120245 C 0.0 **** -0.24
13832 H 76.87368781868398 25.182690209160015 6.643876251866146 H 0.0 **** 0.06
13833 H 75.1042606203435 25.339855851965908 6.5303058038587665 H 0.0 **** 0.06
13834 H 76.04337048076187 26.514226931153118 7.482501212342328 H 0.0 **** 0.06
13835 H 75.85746624392985 24.84252925124767 8.064770361234793 H 0.0 **** 0.06
13836 C 122.01739133024728 39.5563043949694 107.7694530411521 C 0.0 **** -0.24
13837 H 121.91054149802864 40.63634885454377 107.86816860180338 H 0.0 **** 0.06
13838 H 121.51375956671853 39.22265922555857 106.86137334553047 H 0.0 **** 0.06
13839 H 121.57075775690225 39.0663041622513 108.63477838141112 H 0.0 **** 0.06
13840 H 123.07589836133695 39.30009755474771 107.71333096334504 H 0.0 **** 0.06
13841 C 24.288555528281563 27.821107298225954 10.33291706463433 C 0.0 **** -0.24
13842 H 24.089686204108887 28.78651895364787 10.797594374067273 H 0.0 **** 0.06
13843 H 23.453462602177126 27.550021497323407 9.686196835581086 H 0.0 **** 0.06
13844 H 24.409810792195117 27.063127940104295 11.107017303772466 H 0.0 **** 0.06
13845 H 25.201144435505967 27.88383440780676 9.740502106950942 H 0.0 **** 0.06
13846 C 77.42817255219194 90.79029302333683 107.61042760877388 C 0.0 **** -0.24
13847 H 76.7015674961641 91.09329932170763 108.36400703955127 H 0.0 **** 0.06
13848 H 77.02011581547418 89.96779695286838 107.02319715384499 H 0.0 **** 0.06
13849 H 78.34599199389646 90.46589500832684 108.10158048502768 H 0.0 **** 0.06
13850 H 77.64423290372696 91.63362267223388 106.95517903877845 H 0.0 **** 0.06
13851 C 75.48908723862723 19.564966582364633 57.99379924833404 C 0.0 **** -0.24
13852 H 74.60082370786023 19.73446437020675 57.3848303388215 H 0.0 **** 0.06
13853 H 76.36607202861376 19.513176299323476 57.34919696120323 H 0.0 **** 0.06
13854 H 75.38216652800617 18.62793799183467 58.539178038135375 H 0.0 **** 0.06
13855 H 75.60583890308448 20.386842485256764 58.7013774037285 H 0.0 **** 0.06
13856 C 82.46052852240985 35.08531205372407 57.7743246175764 C 0.0 **** -0.24
13857 H 83.06853797729767 35.36909849772556 58.63271753898741 H 0.0 **** 0.06
13858 H 81.95423957407942 35.96658386210764 57.380597298778966 H 0.0 **** 0.06
13859 H 81.71974193156322 34.3471467517239 58.08255334853115 H 0.0 **** 0.06
13860 H 83.10029085607329 34.65723227413929 57.00175705687464 H 0.0 **** 0.06
13861 C 91.29167157736507 75.73599188016323 66.77182619063899 C 0.0 **** -0.24
13862 H 90.71712066405419 76.55004136561797 67.21431733870509 H 0.0 **** 0.06
13863 H 92.16776841939361 75.53241696170379 67.38910196833541 H 0.0 **** 0.06
13864 H 91.61184395811196 76.02061943135408 65.76926420236305 H 0.0 **** 0.06
13865 H 90.67069268285618 74.84208075586876 66.7144344208217 H 0.0 **** 0.06
13866 C 75.52976027209988 42.47203441421527 2.2483307021080634 C 0.0 **** -0.24
13867 H 74.45944381073451 42.28108202640735 2.328465491377642 H 0.0 **** 0.06
13868 H 75.99149547803171 42.371047167775885 3.2301488335178306 H 0.0 **** 0.06
13869 H 75.69167027039609 43.48249412180141 1.8717698315584812 H 0.0 **** 0.06
13870 H 75.97559344957494 41.75261503542802 1.5610707279144833 H 0.0 **** 0.06
13871 C 41.85485510838723 93.67489800937892 16.827782728549693 C 0.0 **** -0.24
13872 H 42.60095863885311 93.01382404966131 17.26852237959386 H 0.0 **** 0.06
13873 H 41.308410155537615 94.18474346543974 17.621840839480086 H 0.0 **** 0.06
13874 H 41.15978456035569 93.08836189845604 16.226469944487604 H 0.0 **** 0.06
13875 H 42.350809785342996 94.41179640967903 16.19628657203492 H 0.0 **** 0.06
13876 C 102.96959154573966 74.5876526165974 116.96557029559868 C 0.0 **** -0.24
13877 H 102.44470104692533 75.39888727459514 116.4610289149326 H 0.0 **** 0.06
13878 H 103.64679252188958 74.10050929843857 116.26312314527763 H 0.0 **** 0.06
13879 H 102.2444130229091 73.8615845182473 117.33468545123252 H 0.0 **** 0.06
13880 H 103.540414944991 74.98891003571008 117.80289390674203 H 0.0 **** 0.06
13881 C 121.84811279467633 105.67026784243683 78.52092718469567 C 0.0 **** -0.24
13882 H 122.62690762709502 105.72567398521028 77.76094664220722 H 0.0 **** 0.06
13883 H 121.96789333186757 106.49536166214045 79.22376612262968 H 0.0 **** 0.06
13884 H 121.92886610237218 104.72329449586255 79.05490574969394 H 0.0 **** 0.06
13885 H 120.87016025011947 105.73706319460473 78.04414220950059 H 0.0 **** 0.06
13886 C 40.00164406490385 34.471835753475546 96.74685505381797 C 0.0 **** -0.24
13887 H 40.941916745660286 34.64645804455008 97.26978912841895 H 0.0 **** 0.06
13888 H 39.90374489492895 35.18370903224542 95.92692705525263 H 0.0 **** 0.06
13889 H 39.17070331789245 34.60037362111224 97.44070173354953 H 0.0 **** 0.06
13890 H 39.98967272140707 33.45656516882473 96.35081084410467 H 0.0 **** 0.06
13891 C 93.43928241272141 43.003651448059145 47.7492897787551 C 0.0 **** -0.24
13892 H 94.34242233342219 42.5094265458205 48.10719022845768 H 0.0 **** 0.06
13893 H 93.25519475606421 43.89847223664 48.34252844358684 H 0.0 **** 0.06
13894 H 92.59256127877292 42.32388545835532 47.842816296788556 H 0.0 **** 0.06
13895 H 93.56799221390996 43.281043923209694 46.70244309538111 H 0.0 **** 0.06
13896 C 26.833864954744115 38.80451615335078 122.61329837189264 C 0.0 **** -0.24
13897 H 26.120611828813935 38.22876380362999 123.20304146228327 H 0.0 **** 0.06
13898 H 26.65350791898088 39.86850808061741 122.76377820379088 H 0.0 **** 0.06
13899 H 26.711697289681695 38.56011241097984 121.55696096920367 H 0.0 **** 0.06
13900 H 27.84788077833754 38.55823600717041 122.92770366182654 H 0.0 **** 0.06
13901 C 28.07857256464237 117.87777387729551 39.53347409696897 C 0.0 **** -0.24
13902 H 28.898244185710524 117.44162104108896 38.96284740387111 H 0.0 **** 0.06
13903 H 28.477764088461754 118.3857593294173 40.41142262613448 H 0.0 **** 0.06
13904 H 27.39643926488003 117.0881445629585 39.849188264292934 H 0.0 **** 0.06
13905 H 27.542576446884453 118.59370996974828 38.910436075177216 H 0.0 **** 0.06
13906 C 68.0819924255667 42.77722164803717 45.527180533217006 C 0.0 **** -0.24
13907 H 67.34691117581129 43.51339399076613 45.2003294968176 H 0.0 **** 0.06
13908 H 67.57056269981152 41.86697749162752 45.839322949620694 H 0.0 **** 0.06
13909 H 68.65092780384411 43.18103418032382 46.36566057009631 H 0.0 **** 0.06
13910 H 68.76055381882212 42.55103898085443 44.704016756854756 H 0.0 **** 0.06
13911 C 36.172466028855666 85.6463007493451 54.50560560789914 C 0.0 **** -0.24
13912 H 36.87390171509304 86.36353181643389 54.93236702362883 H 0.0 **** 0.06
13913 H 35.36415409261042 85.46292512580905 55.21256093223509 H 0.0 **** 0.06
13914 H 36.692693418334585 84.7109144339411 54.29645332602031 H 0.0 **** 0.06
13915 H 35.76158006368698 86.04760145352566 53.579346917993604 H 0.0 **** 0.06
13916 C 88.07566144005196 30.098747975606273 58.17320558189637 C 0.0 **** -0.24
13917 H 87.49101674816886 30.968644353216575 58.47050596863663 H 0.0 **** 0.06
13918 H 88.63706169453435 30.330283038955088 57.2673302898459 H 0.0 **** 0.06
13919 H 87.40777728171123 29.259436239832667 57.98232811760414 H 0.0 **** 0.06
13920 H 88.76901016878685 29.836463019984535 58.97244826147801 H 0.0 **** 0.06
13921 C 102.53776490881057 115.72581568426841 40.95847744173959 C 0.0 **** -0.24
13922 H 102.96020751858663 116.00733947621757 39.99376021962564 H 0.0 **** 0.06
13923 H 101.91640386802862 114.83769145444194 40.83708717766304 H 0.0 **** 0.06
13924 H 101.93023323767864 116.54517826544782 41.34227285238484 H 0.0 **** 0.06
13925 H 103.34516907133406 115.51248817639532 41.65884776554981 H 0.0 **** 0.06
13926 C 48.063913958462706 32.98328368859774 73.45974358934687 C 0.0 **** -0.24
13927 H 47.66860264082007 33.648242998440736 74.22812359008384 H 0.0 **** 0.06
13928 H 48.34556634892979 33.56818255199491 72.58379839103968 H 0.0 **** 0.06
13929 H 47.30183880652899 32.25602973424165 73.1823940371776 H 0.0 **** 0.06
13930 H 48.940647970564356 32.46276843216076 73.84656539244673 H 0.0 **** 0.06
13931 C 112.88473242273004 66.9317508930134 71.14925713819666 C 0.0 **** -0.24
13932 H 112.61096591198876 67.98527975829475 71.08969581147954 H 0.0 **** 0.06
13933 H 112.45433883257215 66.49431135853521 72.05045342804686 H 0.0 **** 0.06
13934 H 113.97023294657363 66.839885727765 71.18265022909685 H 0.0 **** 0.06
13935 H 112.50321669778936 66.40721666434715 70.27329464117396 H 0.0 **** 0.06
13936 C 96.07972812868097 41.391598329667644 8.826949206817787 C 0.0 **** -0.24
13937 H 96.31350349153686 42.4563575144061 8.833997748495108 H 0.0 **** 0.06
13938 H 96.80377596720972 40.865330891921985 8.205591841956675 H 0.0 **** 0.06
13939 H 95.07779157281968 41.24324010075439 8.424410175819261 H 0.0 **** 0.06
13940 H 96.12342353620775 41.004248447669305 9.84407476498464 H 0.0 **** 0.06
13941 C 26.125159136485422 106.51108368629637 53.576424666284765 C 0.0 **** -0.24
13942 H 26.69272010003482 107.44155705697011 53.592782233599564 H 0.0 **** 0.06
13943 H 25.078482223581943 106.72805892579399 53.35763019631395 H 0.0 **** 0.06
13944 H 26.19980071613628 106.02351149125741 54.54766285324115 H 0.0 **** 0.06
13945 H 26.52846279503217 105.85331044834453 52.807169066150664 H 0.0 **** 0.06
13946 C 76.72418808335388 26.592198993341896 70.52286026592554 C 0.0 **** -0.24
13947 H 76.38110155271885 25.762516890608453 69.90573638476067 H 0.0 **** 0.06
13948 H 75.89727801260257 26.959060813270156 71.13038048120922 H 0.0 **** 0.06
13949 H 77.08905073547092 27.394518027562043 69.88142661473319 H 0.0 **** 0.06
13950 H 77.52997276815536 26.252223482851576 71.17330656889172 H 0.0 **** 0.06
13951 C 112.87800652967582 51.234028521388296 51.96981793854306 C 0.0 **** -0.24
13952 H 112.44257815953421 50.235927380470656 51.91506402052843 H 0.0 **** 0.06
13953 H 113.88026919070921 51.21784138559487 51.53953042940552 H 0.0 **** 0.06
13954 H 112.93381366322785 51.54891692455543 53.01145536117909 H 0.0 **** 0.06
13955 H 112.25443664280209 51.9332880672078 51.4117664615174 H 0.0 **** 0.06
13956 C 91.15078863268205 78.6546511628644 31.69892765061124 C 0.0 **** -0.24
13957 H 91.34303151868676 78.82199940301575 32.75860398528113 H 0.0 **** 0.06
13958 H 90.10639365562758 78.37678433023156 31.558432664111265 H 0.0 **** 0.06
13959 H 91.79328010885592 77.85228240919791 31.336288997134545 H 0.0 **** 0.06
13960 H 91.36281995337487 79.56837378102709 31.144022807316617 H 0.0 **** 0.06
13961 C 20.19817289300059 26.989411630863685 70.39101299555074 C 0.0 **** -0.24
13962 H 19.650139631728887 26.41993572446745 69.64073477076357 H 0.0 **** 0.06
13963 H 20.256450155060577 28.03334897323589 70.0818571622604 H 0.0 **** 0.06
13964 H 21.204740777548004 26.583729375205223 70.49203131448701 H 0.0 **** 0.06
13965 H 19.67997661635173 26.92154577006221 71.34762606170574 H 0.0 **** 0.06
13966 C 107.23073584096419 75.66060947162578 99.30195665904006 C 0.0 **** -0.24
13967 H 108.09893881069075 75.60612434401762 99.9586511659526 H 0.0 **** 0.06
13968 H 106.32251087282518 75.52515085298705 99.8886661629252 H 0.0 **** 0.06
13969 H 107.29701941853834 74.87757961313898 98.54737705972309 H 0.0 **** 0.06
13970 H 107.20626081548163 76.63516762303067 98.81367792103498 H 0.0 **** 0.06
13971 C 77.39252251343021 4.0143982985786835 50.169463827162616 C 0.0 **** -0.24
13972 H 77.3094316581892 4.736444868114987 50.981406150399465 H 0.0 **** 0.06
13973 H 76.71309845843447 3.1815757677951098 50.35239365909794 H 0.0 **** 0.06
13974 H 78.41653950045816 3.6447411783244092 50.11476886731241 H 0.0 **** 0.06
13975 H 77.13017203519928 4.496657258206426 49.22706247656771 H 0.0 **** 0.06
13976 C 110.40136363228743 91.76336459428963 34.1577371087123 C 0.0 **** -0.24
13977 H 111.28024489449912 92.30095985716768 33.801653165618006 H 0.0 **** 0.06
13978 H 110.71600408263282 90.89416595454462 34.73531378638461 H 0.0 **** 0.06
13979 H 109.80479947031485 91.43780982073604 33.305473062830345 H 0.0 **** 0.06
13980 H 109.804472470943 92.42225469171758 34.78950650143912 H 0.0 **** 0.06
13981 C 119.55253222972684 39.065013586978125 81.37314810527789 C 0.0 **** -0.24
13982 H 119.55335049431156 39.997317730273664 80.80677974302256 H 0.0 **** 0.06
13983 H 120.17717782675206 38.331429993478935 80.8643154705531 H 0.0 **** 0.06
13984 H 118.53324109084254 38.68675895527366 81.44730796094808 H 0.0 **** 0.06
13985 H 119.94593660979181 39.24793593085485 82.37265902127393 H 0.0 **** 0.06
13986 C 79.63442383820892 41.032663394320195 98.11445238427467 C 0.0 **** -0.24
13987 H 79.51705594931508 42.096171943555305 97.90731225875658 H 0.0 **** 0.06
13988 H 78.92662118866085 40.46448446362115 97.51013386901974 H 0.0 **** 0.06
13989 H 79.44271151357704 40.84494329338543 99.17089748627745 H 0.0 **** 0.06
13990 H 80.65060702597295 40.724162932195725 97.86861929469353 H 0.0 **** 0.06
13991 C 25.579850848500854 13.535323485736672 113.65331303236934 C 0.0 **** -0.24
13992 H 26.3152516970149 12.97455715986634 113.07598690929905 H 0.0 **** 0.06
13993 H 24.95069618638098 14.112653346887576 112.97484754138469 H 0.0 **** 0.06
13994 H 26.092669765371085 14.210769549472666 114.33755424912329 H 0.0 **** 0.06
13995 H 24.96008505597348 12.842520116634986 114.22224057004797 H 0.0 **** 0.06
13996 C 9.764805353213546 67.26273100848249 69.35824268974693 C 0.0 **** -0.24
13997 H 9.806528373470712 67.82255353102408 70.29260163761131 H 0.0 **** 0.06
13998 H 10.45074658893111 67.70873874131729 68.63717299897456 H 0.0 **** 0.06
13999 H 8.750297093484107 67.29303769661686 68.96229933637872 H 0.0 **** 0.06
14000 H 10.052441320295657 66.22779111435574 69.54186633629598 H 0.0 **** 0.06
14001 C 68.20284026750703 88.98822074116725 99.28016901130711 C 0.0 **** -0.24
14002 H 69.15160579364279 88.64191529889558 99.69120462299102 H 0.0 **** 0.06
14003 H 67.40078349554882 88.77373475750669 99.98782041554972 H 0.0 **** 0.06
14004 H 68.00554163150278 88.47353803468809 98.34011548303293 H 0.0 **** 0.06
14005 H 68.25401547643317 90.06190508269219 99.10310216417234 H 0.0 **** 0.06
14006 C 119.7589501427422 4.103235389230605 116.35712517797387 C 0.0 **** -0.24
14007 H 119.13178788371752 3.382701997909308 115.83056945548356 H 0.0 **** 0.06
14008 H 119.45461285300648 4.153185435531839 117.40277786201418 H 0.0 **** 0.06
14009 H 119.6470681991645 5.085106719240201 115.89809164316466 H 0.0 **** 0.06
14010 H 120.80077164520333 3.7901184722463483 116.29659083607586 H 0.0 **** 0.06
14011 C 17.122532179076074 32.57574719296246 93.69703427828296 C 0.0 **** -0.24
14012 H 17.550269491611914 31.908125129995334 92.94898194852506 H 0.0 **** 0.06
14013 H 16.11481372624729 32.860756184218424 93.39453285872257 H 0.0 **** 0.06
14014 H 17.742202591483306 33.46764997998101 93.78327604390942 H 0.0 **** 0.06
14015 H 17.083360967269016 32.06503861894897 94.65856795498536 H 0.0 **** 0.06
14016 C 49.18477158161052 10.457562540056927 92.66854643015478 C 0.0 **** -0.24
14017 H 48.28862006627992 10.549040104241271 92.05554644906107 H 0.0 **** 0.06
14018 H 49.90318274335628 9.807945078920739 92.16784262299689 H 0.0 **** 0.06
14019 H 48.92111658916173 10.031009160023132 93.63643225746432 H 0.0 **** 0.06
14020 H 49.626986583242825 11.443405153519393 92.81427896505073 H 0.0 **** 0.06
14021 C 6.978124626166419 91.72458156853523 29.144970119689503 C 0.0 **** -0.24
14022 H 7.421266224093898 92.459248746199 28.471828656278092 H 0.0 **** 0.06
14023 H 7.685142143541384 91.4893130148443 29.940480422985786 H 0.0 **** 0.06
14024 H 6.74143713406238 90.81824244715423 28.587477389538662 H 0.0 **** 0.06
14025 H 6.064950264841968 92.13300509126069 29.577703884378025 H 0.0 **** 0.06
14026 C 80.5695776727128 89.18273483391931 71.14108094874905 C 0.0 **** -0.24
14027 H 80.86067686332945 90.11967934156763 71.61570284604716 H 0.0 **** 0.06
14028 H 79.55813804006743 88.91846801213649 71.45091584556832 H 0.0 **** 0.06
14029 H 81.25935733780119 88.39404099096748 71.44174313412793 H 0.0 **** 0.06
14030 H 80.59947607301214 89.29873103296472 70.05756228788795 H 0.0 **** 0.06
14031 C 0.531097870251898 23.0258387291627 56.534679722325535 C 0.0 **** -0.24
14032 H 1.1857639155431343 22.937735832897772 55.666609418698016 H 0.0 **** 0.06
14033 H 0.011144236577592892 22.081245767709106 56.69281269440708 H 0.0 **** 0.06
14034 H -0.19625158548794275 23.818514484961696 56.36138637292407 H 0.0 **** 0.06
14035 H 1.1267200103299047 23.26530832912467 57.41530521465896 H 0.0 **** 0.06
14036 C 57.78580854945103 2.1817588743698195 35.69502387924763 C 0.0 **** -0.24
14037 H 58.74891467464428 1.673039959363905 35.67663123530875 H 0.0 **** 0.06
14038 H 57.75919130280229 2.8796796606360715 36.53326664323279 H 0.0 **** 0.06
14039 H 56.988429646030156 1.4473166303874052 35.80753685470995 H 0.0 **** 0.06
14040 H 57.64680243564307 2.7293160327729993 34.76187208945274 H 0.0 **** 0.06
14041 C 89.58425856014793 70.05265334991765 109.461234717418 C 0.0 **** -0.24
14042 H 90.54552728900273 70.46726850747103 109.76378946599459 H 0.0 **** 0.06
14043 H 89.28089653975144 69.2817962818047 110.1705383475088 H 0.0 **** 0.06
14044 H 89.67364933142 69.61661048151439 108.46637412335525 H 0.0 **** 0.06
14045 H 88.83592284521632 70.84589644590443 109.4442986044927 H 0.0 **** 0.06
14046 C 19.28644374187189 43.916345061143375 111.0124993834288 C 0.0 **** -0.24
14047 H 18.267026973922846 43.73025806115237 111.3500179314208 H 0.0 **** 0.06
14048 H 19.98711957053105 43.41047698461654 111.67664061106629 H 0.0 **** 0.06
14049 H 19.48275303955895 44.98884703688776 111.02478450091809 H 0.0 **** 0.06
14050 H 19.407655074566648 43.53596793753445 109.99786013474083 H 0.0 **** 0.06
14051 C 99.77227669071785 7.081086884823421 57.60651407246422 C 0.0 **** -0.24
14052 H 98.95624871857103 7.0196705234672905 58.326794647255085 H 0.0 **** 0.06
14053 H 100.69807819846446 6.751054690292939 58.078165475931044 H 0.0 **** 0.06
14054 H 99.88242432293049 8.1115651875402 57.26900605100208 H 0.0 **** 0.06
14055 H 99.5512443921022 6.43987666772659 56.752196226446344 H 0.0 **** 0.06
14056 C 79.92370795126538 15.499720007486943 48.24037927800157 C 0.0 **** -0.24
14057 H 79.37740638036834 15.74560646666302 49.150341413139344 H 0.0 **** 0.06
14058 H 80.51228270244246 16.361277124888332 47.92597703062002 H 0.0 **** 0.06
14059 H 79.21747724139155 15.235119718634941 47.45314703750594 H 0.0 **** 0.06
14060 H 80.58706845523994 14.656095955130883 48.432236077548765 H 0.0 **** 0.06
14061 C 2.741530448526582 48.955705239709964 68.92491791275117 C 0.0 **** -0.24
14062 H 2.685672245396507 49.85577849499389 69.53717333630188 H 0.0 **** 0.06
14063 H 1.8062289154191085 48.402148563804055 69.00807293184897 H 0.0 **** 0.06
14064 H 3.565304817649581 48.33077857330971 69.2711493473859 H 0.0 **** 0.06
14065 H 2.908755559545167 49.23389172295109 67.88466327249883 H 0.0 **** 0.06
14066 C 90.381020971116 91.27485178727385 37.76035333355773 C 0.0 **** -0.24
14067 H 89.84688334752501 91.29963702137198 36.80941090036433 H 0.0 **** 0.06
14068 H 91.35321477081882 91.75235065799261 37.642464845368835 H 0.0 **** 0.06
14069 H 90.51814932260173 90.23982920187692 38.072585204397996 H 0.0 **** 0.06
14070 H 89.80234670718364 91.80778003958653 38.514764545301205 H 0.0 **** 0.06
14071 C 102.81961871720722 84.40933007071453 81.58893111339279 C 0.0 **** -0.24
14072 H 103.14407066690313 84.44767179403425 80.54886641753706 H 0.0 **** 0.06
14073 H 101.92194752309155 85.01645394126479 81.712222723683 H 0.0 **** 0.06
14074 H 103.61129331611451 84.79457721935555 82.23133025484549 H 0.0 **** 0.06
14075 H 102.60058382782626 83.37655315641211 81.86212029767125 H 0.0 **** 0.06
14076 C 94.360566515502 111.72433959430373 61.89286543305627 C 0.0 **** -0.24
14077 H 95.38637960172062 111.95849709769008 62.17628287730997 H 0.0 **** 0.06
14078 H 94.33803138983326 111.39364023570118 60.8538375789596 H 0.0 **** 0.06
14079 H 93.74019102093725 112.61343208998795 62.003939573799016 H 0.0 **** 0.06
14080 H 93.97810422410909 110.9311664194683 62.53529956861951 H 0.0 **** 0.06
14081 C 95.32067187139302 15.356259365292345 39.355104765861114 C 0.0 **** -0.24
14082 H 95.28240057902934 14.289613065303769 39.136631373703636 H 0.0 **** 0.06
14083 H 94.55562731990051 15.872979159135298 38.774316270222386 H 0.0 **** 0.06
14084 H 96.3025320797102 15.747323390405512 39.09080361428536 H 0.0 **** 0.06
14085 H 95.13982322413807 15.515703860644948 40.41807462576665 H 0.0 **** 0.06
14086 C 85.75868234333501 70.43296719105399 97.87549585290739 C 0.0 **** -0.24
14087 H 85.2775850906485 69.62355979475711 97.32530418460749 H 0.0 **** 0.06
14088 H 86.39472602285622 70.01356255230189 98.65556504199887 H 0.0 **** 0.06
14089 H 84.99641576861345 71.06625569745847 98.32793477060594 H 0.0 **** 0.06
14090 H 86.36522485815496 71.02565968396567 97.19108627787125 H 0.0 **** 0.06
14091 C 19.53067754527704 2.0037636144918736 2.0357965868880825 C 0.0 **** -0.24
14092 H 19.28247588225086 0.969792526145028 2.2739003289728856 H 0.0 **** 0.06
14093 H 20.6129728001196 2.112235922781167 1.9750563374058885 H 0.0 **** 0.06
14094 H 19.14231709029269 2.659123026470297 2.816068950291708 H 0.0 **** 0.06
14095 H 19.083612705992373 2.273785326437064 1.0786220689986266 H 0.0 **** 0.06
14096 C 102.59208115414538 75.96418359147386 25.63354856260456 C 0.0 **** -0.24
14097 H 102.65101120461222 76.96864895703268 25.213598182161128 H 0.0 **** 0.06
14098 H 103.43680778428157 75.79960061904502 26.302046911494187 H 0.0 **** 0.06
14099 H 102.61879594638523 75.23160162546752 24.826284825264842 H 0.0 **** 0.06
14100 H 101.66067118512473 75.85835555625154 26.18986556715145 H 0.0 **** 0.06
14101 C 29.400297342780732 71.28638029537484 68.09661452819537 C 0.0 **** -0.24
14102 H 28.438648531718115 70.78898904825911 68.22273437971077 H 0.0 **** 0.06
14103 H 29.34692424776307 72.29266462799734 68.51287393685297 H 0.0 **** 0.06
14104 H 29.643255473886484 71.34287471175986 67.03554458053395 H 0.0 **** 0.06
14105 H 30.17282155918673 70.71877952900275 68.6162484949478 H 0.0 **** 0.06
14106 C 121.21801134269627 35.621854955319996 106.05028828406174 C 0.0 **** -0.24
14107 H 122.0679464525231 36.17617440043246 106.44742797002147 H 0.0 **** 0.06
14108 H 121.26165456478795 35.62181643041086 104.96022402712043 H 0.0 **** 0.06
14109 H 120.29116015159374 36.09411335200782 106.37663719127045 H 0.0 **** 0.06
14110 H 121.25033935026826 34.59516869942525 106.41541970920093 H 0.0 **** 0.06
14111 C 123.08743753709624 95.24615108968266 112.68275888333386 C 0.0 **** -0.24
14112 H 123.21315778663529 94.21169601610836 112.36184321077462 H 0.0 **** 0.06
14113 H 122.43427618362358 95.7658262611792 111.98194531720412 H 0.0 **** 0.06
14114 H 124.05935564274202 95.73888262611632 112.70758894319675 H 0.0 **** 0.06
14115 H 122.6444437957957 95.26679372771872 113.67724468181672 H 0.0 **** 0.06
14116 C 8.119184738292518 72.05481675846623 8.30256349176932 C 0.0 **** -0.24
14117 H 7.975920121582703 72.2775163454555 9.359559617989504 H 0.0 **** 0.06
14118 H 7.656038422800577 71.0962394145401 8.067798302719353 H 0.0 **** 0.06
14119 H 9.185316811942897 72.00755181411417 8.082906757316977 H 0.0 **** 0.06
14120 H 7.658229371515375 72.83834321310715 7.700563334738632 H 0.0 **** 0.06
14121 C 24.26626780818532 74.96646090373585 116.84320001332355 C 0.0 **** -0.24
14122 H 24.527306869042548 74.00220715471941 117.27878352947107 H 0.0 **** 0.06
14123 H 25.171277874709745 75.46253441233576 116.48973054325018 H 0.0 **** 0.06
14124 H 23.78337167033402 75.58757016391208 117.59784849652328 H 0.0 **** 0.06
14125 H 23.584796699801814 74.81495784764529 116.0068091983772 H 0.0 **** 0.06
14126 C 73.8944052525946 42.12762940077265 6.993409559362064 C 0.0 **** -0.24
14127 H 74.81683792596198 41.55569165494046 7.097067261608487 H 0.0 **** 0.06
14128 H 73.06606558990393 41.55960240874032 7.418754752500092 H 0.0 **** 0.06
14129 H 73.70131486216707 42.31666344431446 5.937563015612646 H 0.0 **** 0.06
14130 H 73.99411303610259 43.075657329361576 7.519989086146207 H 0.0 **** 0.06
14131 C 39.19428437890771 79.66201754171229 22.169215750983042 C 0.0 **** -0.24
14132 H 39.324132315972975 78.60845587819236 22.4160051814318 H 0.0 **** 0.06
14133 H 40.10454373424038 80.20730605018528 22.418811546970993 H 0.0 **** 0.06
14134 H 38.35959364124339 80.06742927180264 22.73987618813888 H 0.0 **** 0.06
14135 H 38.99014906294656 79.76268157449206 21.104049031527104 H 0.0 **** 0.06
14136 C 106.93149934661767 60.84683920242007 67.63701851507119 C 0.0 **** -0.24
14137 H 107.31426496614807 59.864574451718624 67.35946642545288 H 0.0 **** 0.06
14138 H 105.87757355692275 60.91652010078553 67.36427905857381 H 0.0 **** 0.06
14139 H 107.49523839638965 61.61824273754313 67.11244194889093 H 0.0 **** 0.06
14140 H 107.03828021084502 60.987665275723955 68.71309687136872 H 0.0 **** 0.06
14141 C 70.63011100224958 49.0198626622135 4.8529927532947 C 0.0 **** -0.24
14142 H 71.07891518759713 48.32055536655354 4.147456203022131 H 0.0 **** 0.06
14143 H 70.1650883494661 48.46506673391084 5.668142518341767 H 0.0 **** 0.06
14144 H 69.87426273511889 49.61567989633099 4.3415507569561385 H 0.0 **** 0.06
14145 H 71.40156872464318 49.677454307805064 5.253356218816975 H 0.0 **** 0.06
14146 C 39.11546039699593 14.704075795459946 84.87673760275894 C 0.0 **** -0.24
14147 H 38.996381442775885 15.47911454144247 85.63331661890672 H 0.0 **** 0.06
14148 H 39.40382425314951 13.768790333227347 85.35653453739434 H 0.0 **** 0.06
14149 H 39.88862565998707 15.003438523727262 84.16835126770962 H 0.0 **** 0.06
14150 H 38.17212408957235 14.565926290831005 84.34723774551003 H 0.0 **** 0.06
14151 C 34.78848891536251 67.01973207339942 88.37375536518417 C 0.0 **** -0.24
14152 H 34.487410039472024 66.92786806967844 89.4180825688928 H 0.0 **** 0.06
14153 H 34.264684449511776 66.27076415880283 87.77879257979691 H 0.0 **** 0.06
14154 H 35.86363620012517 66.86379275848215 88.2908222511065 H 0.0 **** 0.06
14155 H 34.535538344276404 68.01558772816544 88.00954767125202 H 0.0 **** 0.06
14156 C 12.186676939029837 32.42805769555417 91.9855439831376 C 0.0 **** -0.24
14157 H 12.858259975876809 32.641914106290244 92.8165718573782 H 0.0 **** 0.06
14158 H 12.439674928039718 33.06901879950857 91.14023418385665 H 0.0 **** 0.06
14159 H 11.157364039749005 32.61870904129387 92.29127718599636 H 0.0 **** 0.06
14160 H 12.291408812453948 31.382588835123727 91.69409270531887 H 0.0 **** 0.06
14161 C 31.821797429631488 7.2386643825296915 123.42489787302941 C 0.0 **** -0.24
14162 H 30.98270100453152 6.672495832687474 123.02040550326848 H 0.0 **** 0.06
14163 H 32.66672324462968 6.569649820149692 123.58520239558263 H 0.0 **** 0.06
14164 H 31.53056057822465 7.692016478120166 124.37231577056684 H 0.0 **** 0.06
14165 H 32.10505698124075 8.019618499369216 122.71976571533315 H 0.0 **** 0.06
14166 C 90.29871644108442 2.3865886897076365 88.53166510753647 C 0.0 **** -0.24
14167 H 90.46578512914104 3.4338599275241393 88.7846606545155 H 0.0 **** 0.06
14168 H 89.32032181738644 2.2793946163412215 88.06321115780383 H 0.0 **** 0.06
14169 H 90.33578833494008 1.7830745013093008 89.43831442237965 H 0.0 **** 0.06
14170 H 91.07244405580087 2.052178255715262 87.840773703949 H 0.0 **** 0.06
14171 C 72.07531105472626 46.04710236759167 84.15426130266083 C 0.0 **** -0.24
14172 H 72.65757633982051 45.16227948597264 84.41369024170879 H 0.0 **** 0.06
14173 H 72.44031402613766 46.90135673263456 84.72462962944766 H 0.0 **** 0.06
14174 H 71.02588893745295 45.87269516890569 84.38990724322494 H 0.0 **** 0.06
14175 H 72.1798004176446 46.25050942977276 83.08852622950609 H 0.0 **** 0.06
14176 C 21.48845689815289 95.30110099021573 84.89409257613036 C 0.0 **** -0.24
14177 H 20.850244232509397 94.90248455950743 84.10509176786468 H 0.0 **** 0.06
14178 H 22.386956547027125 95.73252713458072 84.45190526744071 H 0.0 **** 0.06
14179 H 21.769034818775765 94.49670555639244 85.57500578216425 H 0.0 **** 0.06
14180 H 20.947422388248924 96.07075926200008 85.44386113636656 H 0.0 **** 0.06
14181 C 26.566910028919835 61.43878282595523 114.91332278480931 C 0.0 **** -0.24
14182 H 27.153281767534622 62.326034896474766 115.15396505122726 H 0.0 **** 0.06
14183 H 27.03354153488624 60.56247133273405 115.36440921499388 H 0.0 **** 0.06
14184 H 26.52757581590845 61.313408918996686 113.83191082077755 H 0.0 **** 0.06
14185 H 25.55598516143587 61.55507879131915 115.30297882050766 H 0.0 **** 0.06
14186 C 112.90601918480812 75.35634268041173 59.98817089567227 C 0.0 **** -0.24
14187 H 113.88942166927987 74.94262702113821 60.210052801429384 H 0.0 **** 0.06
14188 H 112.73440657466281 75.32674405874243 58.9117588982114 H 0.0 **** 0.06
14189 H 112.85907432159573 76.38846141806624 60.33623960479568 H 0.0 **** 0.06
14190 H 112.14117417369371 74.76753822369994 60.494632278252425 H 0.0 **** 0.06
14191 C 87.57315794562159 116.27464421001368 11.51522200157575 C 0.0 **** -0.24
14192 H 88.27518176004023 115.88157950414794 10.779562140546943 H 0.0 **** 0.06
14193 H 86.620207720312 115.75370167567924 11.421256779352348 H 0.0 **** 0.06
14194 H 87.42391866664985 117.34012017852552 11.341595156438018 H 0.0 **** 0.06
14195 H 87.97374343519414 116.1219980811264 12.516912613027273 H 0.0 **** 0.06
14196 C 84.21483150716202 66.73857792254685 68.16101573944665 C 0.0 **** -0.24
14197 H 85.30174509165894 66.6627966626588 68.14393561280716 H 0.0 **** 0.06
14198 H 83.91397468724293 67.71374789173309 67.77578268367405 H 0.0 **** 0.06
14199 H 83.85816493677939 66.62620401460121 69.18497559305308 H 0.0 **** 0.06
14200 H 83.78554047482311 65.95362683341841 67.53851377479332 H 0.0 **** 0.06
14201 C 80.80268739024791 85.54768722820408 78.8405575458401 C 0.0 **** -0.24
14202 H 81.36373521112729 85.99082172892051 79.66369963343894 H 0.0 **** 0.06
14203 H 81.36812811609697 85.6579577943633 77.91443283792614 H 0.0 **** 0.06
14204 H 79.8418376307359 86.0518679201121 78.74309876645697 H 0.0 **** 0.06
14205 H 80.63861844565294 84.489116956966 79.04175163662049 H 0.0 **** 0.06
14206 C 123.03069476429886 123.80366273407792 14.871958992532054 C 0.0 **** -0.24
14207 H 122.3581292205578 124.66011795775454 14.892759214440513 H 0.0 **** 0.06
14208 H 122.70678548008394 123.06900478096587 15.609748407787073 H 0.0 **** 0.06
14209 H 124.04402274264447 124.13031933515364 15.104670312349064 H 0.0 **** 0.06
14210 H 123.01364723955588 123.3531509868244 13.87934361997321 H 0.0 **** 0.06
14211 C 8.026402083171021 63.21880491440491 28.908038616174252 C 0.0 **** -0.24
14212 H 7.45349714137204 62.29963708015143 28.781361141210482 H 0.0 **** 0.06
14213 H 7.346781733353978 64.07114199740381 28.915208052472877 H 0.0 **** 0.06
14214 H 8.732593789819589 63.3226542205763 28.08458960559082 H 0.0 **** 0.06
14215 H 8.571599178085535 63.180154513762844 29.850781926369905 H 0.0 **** 0.06
14216 C 35.38582529164421 40.82103182159841 10.862809630378063 C 0.0 **** -0.24
14217 H 36.02551129315867 41.31152369159685 11.595359397442785 H 0.0 **** 0.06
14218 H 34.60015774374011 41.50775437022352 10.547260315443705 H 0.0 **** 0.06
14219 H 34.93481533098094 39.934542241973645 11.309990811687062 H 0.0 **** 0.06
14220 H 35.98147120124969 40.52787101709728 9.99812216241061 H 0.0 **** 0.06
14221 C 38.2549205359112 95.4463731685944 119.63863944360843 C 0.0 **** -0.24
14222 H 37.23065076849758 95.35041102602544 119.99771655702848 H 0.0 **** 0.06
14223 H 38.65705070706491 94.45627587607453 119.42208361592498 H 0.0 **** 0.06
14224 H 38.86430400285985 95.9273890525663 120.40357029196522 H 0.0 **** 0.06
14225 H 38.266488380753685 96.0495371007653 118.73095219091073 H 0.0 **** 0.06
14226 C 92.20331653569528 17.110998216855425 58.55496446795378 C 0.0 **** -0.24
14227 H 92.14489525963262 16.375892327960347 57.7525531209304 H 0.0 **** 0.06
14228 H 91.23885309446871 17.17560515827588 59.05911419143696 H 0.0 **** 0.06
14229 H 92.4612155456548 18.08455147142046 58.137740446747586 H 0.0 **** 0.06
14230 H 92.96842896717408 16.808046304097765 59.269463446589484 H 0.0 **** 0.06
14231 C 5.803185355557417 106.48915133108017 43.96565667630762 C 0.0 **** -0.24
14232 H 6.054286044554004 105.59709137210905 43.39165041192442 H 0.0 **** 0.06
14233 H 4.7396009852763825 106.47567844995831 44.209830040838796 H 0.0 **** 0.06
14234 H 6.029892524961383 107.37727544995579 43.37585237657973 H 0.0 **** 0.06
14235 H 6.386962605580749 106.5051248749835 44.88668802333051 H 0.0 **** 0.06
14236 C 8.04563529427378 52.53724885276799 82.92442891015008 C 0.0 **** -0.24
14237 H 7.424230784790666 51.64100444681549 82.93758893263629 H 0.0 **** 0.06
14238 H 8.624470597235359 52.5642547534633 82.00121762326194 H 0.0 **** 0.06
14239 H 8.723018688736602 52.5212437861604 83.77841269066295 H 0.0 **** 0.06
14240 H 7.409671955447948 53.42070279127327 82.98118699725609 H 0.0 **** 0.06
14241 C 73.42382898350479 100.51217337773768 74.39265490450869 C 0.0 **** -0.24
14242 H 74.31471557828237 100.61960597950069 75.01157414641557 H 0.0 **** 0.06
14243 H 73.71015962352081 100.16228849225465 73.40077535265338 H 0.0 **** 0.06
14244 H 72.92285685374239 101.47649305796776 74.30753035953353 H 0.0 **** 0.06
14245 H 72.747885735327 99.7912161984169 74.85177922773647 H 0.0 **** 0.06
14246 C 94.40845674868254 56.69342745951582 42.190715012407125 C 0.0 **** -0.24
14247 H 93.5014322641749 57.22173805457794 41.895860402209735 H 0.0 **** 0.06
14248 H 95.1818772751391 57.41676548878331 42.45151486296544 H 0.0 **** 0.06
14249 H 94.75446368621019 56.075099891203195 41.36301043156007 H 0.0 **** 0.06
14250 H 94.19608801864476 56.06081321932669 43.05318095885488 H 0.0 **** 0.06
14251 C 108.34815926749523 96.04078940919922 70.43727837942643 C 0.0 **** -0.24
14252 H 109.04017610289957 95.20974724026223 70.57028692110399 H 0.0 **** 0.06
14253 H 108.68367417208515 96.66285955335982 69.60743972316295 H 0.0 **** 0.06
14254 H 108.31587853169943 96.63674518349265 71.34937726535408 H 0.0 **** 0.06
14255 H 107.35204057081101 95.65294311211264 70.22130022195043 H 0.0 **** 0.06
14256 C 89.99882060690209 33.519237549912475 42.96461810448507 C 0.0 **** -0.24
14257 H 90.13550137314078 32.48483108130773 42.647576480352114 H 0.0 **** 0.06
14258 H 89.56480252312693 34.09454047864273 42.14601953228475 H 0.0 **** 0.06
14259 H 90.96311615965016 33.945227249951245 43.23826471656647 H 0.0 **** 0.06
14260 H 89.33033993126121 33.54943231103567 43.82483351401525 H 0.0 **** 0.06
14261 C 19.65492548001008 98.22615915298505 105.66517134906144 C 0.0 **** -0.24
14262 H 19.558545630256305 98.36387193862012 106.74254030500687 H 0.0 **** 0.06
14263 H 19.329042593403187 99.13233836229554 105.1527570734725 H 0.0 **** 0.06
14264 H 19.034911685666515 97.38697482111095 105.34988694363363 H 0.0 **** 0.06
14265 H 20.695967242972642 98.02238717116589 105.41711356206683 H 0.0 **** 0.06
14266 C 30.332737239798803 8.3165694226264 12.236931900186676 C 0.0 **** -0.24
14267 H 30.1515029520927 7.333350594185134 12.670831152334358 H 0.0 **** 0.06
14268 H 31.27307472575984 8.301803995978275 11.685521777534404 H 0.0 **** 0.06
14269 H 30.3879424705614 9.059827373940351 13.031609600807144 H 0.0 **** 0.06
14270 H 29.517774752304888 8.568978954644919 11.558280076762685 H 0.0 **** 0.06
14271 C 96.52345797750718 114.18330569331403 55.81879267888053 C 0.0 **** -0.24
14272 H 97.26026333831614 113.3896247089682 55.701528106774504 H 0.0 **** 0.06
14273 H 96.41795670233194 114.42885207790795 56.87591386650445 H 0.0 **** 0.06
14274 H 95.56357729213418 113.84935766124426 55.42511200030151 H 0.0 **** 0.06
14275 H 96.85305895521608 115.06710104623124 55.27119633426588 H 0.0 **** 0.06
14276 C 53.66971611573361 117.27479792788034 111.22355719862101 C 0.0 **** -0.24
14277 H 53.358487333760664 118.3153600332758 111.31293746139089 H 0.0 **** 0.06
14278 H 54.671066075410735 117.230611969091 110.7945914697223 H 0.0 **** 0.06
14279 H 52.97309276720762 116.7415392001709 110.57650560980154 H 0.0 **** 0.06
14280 H 53.67621828655507 116.81168050898364 112.21019425356926 H 0.0 **** 0.06
14281 C 74.92233354814137 68.92475971746128 69.46611085158143 C 0.0 **** -0.24
14282 H 74.48824330708229 68.34406476332322 68.65088581875068 H 0.0 **** 0.06
14283 H 75.70640491769332 69.57229628181574 69.07269220381615 H 0.0 **** 0.06
14284 H 75.34702062596608 68.24854582685731 70.20740520312489 H 0.0 **** 0.06
14285 H 74.14671724392603 69.53360664859247 69.93066275303931 H 0.0 **** 0.06
14286 C 6.436380227759624 94.13561761798859 73.66161277404409 C 0.0 **** -0.24
14287 H 6.168760824749743 95.18501469959155 73.53526656050191 H 0.0 **** 0.06
14288 H 6.36059606649016 93.86595250593909 74.71566698036393 H 0.0 **** 0.06
14289 H 7.459507139207904 93.97796430810516 73.31819678267564 H 0.0 **** 0.06
14290 H 5.7574395186848335 93.51450815962635 73.07799027520093 H 0.0 **** 0.06
14291 C 91.31406141967624 7.134452028667454 102.53975849380731 C 0.0 **** -0.24
14292 H 90.7672295316239 6.249996232191933 102.864671513708 H 0.0 **** 0.06
14293 H 91.43674448714258 7.815465402614393 103.38197780005316 H 0.0 **** 0.06
14294 H 90.75776911922596 7.634216487478341 101.74629072033684 H 0.0 **** 0.06
14295 H 92.29406448768832 6.8379368374804415 102.16476318646653 H 0.0 **** 0.06
14296 C 89.88072657043597 65.4289499074109 47.01160978150057 C 0.0 **** -0.24
14297 H 89.0333281310749 65.83061352218894 46.454819871452344 H 0.0 **** 0.06
14298 H 90.58490223001036 66.23161463452632 47.22930602043607 H 0.0 **** 0.06
14299 H 90.37633248919168 64.66204520655288 46.415533685436856 H 0.0 **** 0.06
14300 H 89.52764765592005 64.99125177329645 47.944446981061446 H 0.0 **** 0.06
14301 C 23.69150662760063 81.67967275298994 59.934303126776484 C 0.0 **** -0.24
14302 H 23.032662597375577 81.95306573978989 60.759431970665105 H 0.0 **** 0.06
14303 H 23.992116408244613 80.6365874060103 60.039965342351636 H 0.0 **** 0.06
14304 H 24.575956372676046 82.31633548795389 59.95132973888245 H 0.0 **** 0.06
14305 H 23.16563086069405 81.81355834163482 58.98934069490048 H 0.0 **** 0.06
14306 C 36.90251044056964 96.55341822565957 94.12359305698413 C 0.0 **** -0.24
14307 H 36.72379901692828 95.87630641047144 93.28881854908218 H 0.0 **** 0.06
14308 H 37.811400909269565 97.12681163151414 93.93818570553474 H 0.0 **** 0.06
14309 H 37.015961686699114 95.97766416187386 95.04219459448102 H 0.0 **** 0.06
14310 H 36.05751178545003 97.23465795406827 94.22524162114247 H 0.0 **** 0.06
14311 C 114.65266061830923 63.804934107697676 57.81737154002502 C 0.0 **** -0.24
14312 H 115.16265281756857 63.34135599504842 56.973696290553676 H 0.0 **** 0.06
14313 H 115.38891141977824 64.12702504632799 58.553600361532645 H 0.0 **** 0.06
14314 H 113.97427232306562 63.083459713857536 58.27284682131754 H 0.0 **** 0.06
14315 H 114.08480591282456 64.66789567555693 57.469342686695924 H 0.0 **** 0.06
14316 C 101.86534021269091 70.66611710463118 27.87626009279262 C 0.0 **** -0.24
14317 H 102.1964619873006 70.0620583560889 27.03186440639746 H 0.0 **** 0.06
14318 H 101.94368953100533 70.08182022876912 28.79392470212045 H 0.0 **** 0.06
14319 H 100.82889527086738 70.96747873192959 27.724155645147675 H 0.0 **** 0.06
14320 H 102.49327993218643 71.55366432759538 27.955968052252416 H 0.0 **** 0.06
14321 C 90.36552525695816 123.72909689909376 103.05005942522914 C 0.0 **** -0.24
14322 H 89.49321756717308 123.99195442539299 102.45226189816901 H 0.0 **** 0.06
14323 H 90.73466149178569 124.61719871631419 103.56292715185685 H 0.0 **** 0.06
14324 H 91.14640829946694 123.33533472622892 102.39783948867625 H 0.0 **** 0.06
14325 H 90.08851811341128 122.97252256617779 103.78372828173627 H 0.0 **** 0.06
14326 C 117.5548212292845 110.54905187662251 76.35288983201116 C 0.0 **** -0.24
14327 H 117.54840340830134 109.58684479771449 75.8420258681029 H 0.0 **** 0.06
14328 H 118.20750705351642 111.23966821822319 75.81870353354182 H 0.0 **** 0.06
14329 H 117.91970584491409 110.4180197050332 77.37177280471252 H 0.0 **** 0.06
14330 H 116.54207263434952 110.95323966557072 76.37899170784195 H 0.0 **** 0.06
14331 C 17.65201587270883 45.126722180737715 47.548892088461 C 0.0 **** -0.24
14332 H 18.487779925008617 44.56610076507377 47.13034844974962 H 0.0 **** 0.06
14333 H 18.028935644864852 46.00717400530996 48.06935897459835 H 0.0 **** 0.06
14334 H 17.106542081777466 44.49486186398585 48.250193463013574 H 0.0 **** 0.06
14335 H 16.984237604289728 45.4367286190155 46.744903956076726 H 0.0 **** 0.06
14336 C 49.54952821658486 11.426247630064644 84.6416664956737 C 0.0 **** -0.24
14337 H 49.3916653622814 12.450970000185691 84.976881426563 H 0.0 **** 0.06
14338 H 50.618949217242374 11.235000917095395 84.54670762599054 H 0.0 **** 0.06
14339 H 49.06592402725079 11.281762987892442 83.67522771428595 H 0.0 **** 0.06
14340 H 49.1197997157783 10.736351900289534 85.36927498134467 H 0.0 **** 0.06
14341 C 91.89672736164462 109.70197684985561 104.74576261005114 C 0.0 **** -0.24
14342 H 91.21165107082516 110.25371079729712 105.38963514812392 H 0.0 **** 0.06
14343 H 92.77485045175175 110.31515972147423 104.5412599078787 H 0.0 **** 0.06
14344 H 91.39624826281405 109.45886111370788 103.80867291470727 H 0.0 **** 0.06
14345 H 92.20330178173683 108.78286729492396 105.24362441655245 H 0.0 **** 0.06
14346 C 19.584854836211207 68.26515670545592 78.01514041151461 C 0.0 **** -0.24
14347 H 19.867222430871607 67.31733314012558 77.55691804655672 H 0.0 **** 0.06
14348 H 20.11149468675734 69.07933456102324 77.5184367447545 H 0.0 **** 0.06
14349 H 19.851413162767358 68.25022360626929 79.07180324923618 H 0.0 **** 0.06
14350 H 18.51004222260417 68.41167444365527 77.91383373139209 H 0.0 **** 0.06
14351 C 120.52338409519751 118.89663778390099 84.56923876541967 C 0.0 **** -0.24
14352 H 120.91230950495694 119.4481973697626 85.42488397783617 H 0.0 **** 0.06
14353 H 120.90435787723774 117.87500239714379 84.59383338091953 H 0.0 **** 0.06
14354 H 120.84415623981923 119.38262871735253 83.64791811505793 H 0.0 **** 0.06
14355 H 119.43492533845728 118.88024586790868 84.61125633246846 H 0.0 **** 0.06
14356 C 5.339966703529285 106.97053886257483 17.45330863726565 C 0.0 **** -0.24
14357 H 4.682104078242247 106.16544905715807 17.780261026812667 H 0.0 **** 0.06
14358 H 5.101042443115858 107.23913817461337 16.423449225677984 H 0.0 **** 0.06
14359 H 6.376204528764873 106.63888330042798 17.511963710752383 H 0.0 **** 0.06
14360 H 5.198339172878946 107.83817246052327 18.097550267513896 H 0.0 **** 0.06
14361 C 46.09193023320728 9.140740670739575 86.18788394546789 C 0.0 **** -0.24
14362 H 46.85860402866484 9.331187259919517 85.43693648487812 H 0.0 **** 0.06
14363 H 45.79968561156488 10.081318232257104 86.65520787964545 H 0.0 **** 0.06
14364 H 46.48712089126042 8.46471482766944 86.94616694969375 H 0.0 **** 0.06
14365 H 45.222711658910384 8.686050992146406 85.71236203266852 H 0.0 **** 0.06
14366 C 59.76005746291668 60.39650296417389 25.551678850232406 C 0.0 **** -0.24
14367 H 60.475594644909904 60.771786190330346 26.28380506062979 H 0.0 **** 0.06
14368 H 59.04940276037695 59.73225127265012 26.045595244316246 H 0.0 **** 0.06
14369 H 60.28984520351105 59.848917801821216 24.77265118079356 H 0.0 **** 0.06
14370 H 59.22401950054331 61.23466059264862 25.10654988748587 H 0.0 **** 0.06
14371 C 54.828318548983674 115.92439329114478 1.945897231682439 C 0.0 **** -0.24
14372 H 55.684027211493685 116.59869096998437 1.9821331116824048 H 0.0 **** 0.06
14373 H 53.94017348578295 116.47889808665019 1.64378888069138 H 0.0 **** 0.06
14374 H 54.667459206547505 115.48908193693703 2.9323494723266244 H 0.0 **** 0.06
14375 H 55.023307946983735 115.12949685641186 1.225713558199617 H 0.0 **** 0.06
14376 C 73.22099565000948 17.374784765268487 19.120859591015687 C 0.0 **** -0.24
14377 H 72.73916193860359 18.28122249341928 18.753768797704424 H 0.0 **** 0.06
14378 H 73.53088957718629 17.522331943894386 20.155536016203598 H 0.0 **** 0.06
14379 H 74.09462936148054 17.153468303135384 18.507187115817544 H 0.0 **** 0.06
14380 H 72.51909543658499 16.54303192319705 19.066601221989686 H 0.0 **** 0.06
14381 C 81.14239512756444 124.05738588413278 64.25296313298986 C 0.0 **** -0.24
14382 H 81.74536840381711 124.18130103474849 63.352909234432246 H 0.0 **** 0.06
14383 H 81.79582292311505 124.01822541688985 65.12523106654987 H 0.0 **** 0.06
14384 H 80.57257869939241 123.13137277676458 64.18442405546196 H 0.0 **** 0.06
14385 H 80.45776226285301 124.89963268895144 64.3497507017477 H 0.0 **** 0.06
14386 C 47.22059858012986 0.29519316542635465 88.78069560621643 C 0.0 **** -0.24
14387 H 46.58714893054511 0.7771995511008782 89.52574669450927 H 0.0 **** 0.06
14388 H 48.25055881713118 0.2753051437275218 89.13920247045199 H 0.0 **** 0.06
14389 H 47.171638610281406 0.8522758694154362 87.84551356698418 H 0.0 **** 0.06
14390 H 46.874049339275075 -0.724851006672182 88.61413261548229 H 0.0 **** 0.06
14391 C 115.52882582605774 3.9807193812878268 13.960300388475957 C 0.0 **** -0.24
14392 H 115.64415289101436 4.952856679428976 14.440106050703719 H 0.0 **** 0.06
14393 H 115.21701880740312 4.121434713828393 12.925012348736175 H 0.0 **** 0.06
14394 H 114.77516737962199 3.3999873382429087 14.491651420845585 H 0.0 **** 0.06
14395 H 116.48020380231418 3.449257630357522 13.984259999877224 H 0.0 **** 0.06
14396 C 31.85642201831405 91.3881514981914 53.91412677415444 C 0.0 **** -0.24
14397 H 30.983861731800857 92.02180812783496 53.755903769458996 H 0.0 **** 0.06
14398 H 32.12721549943058 91.400922833945 54.970725367109395 H 0.0 **** 0.06
14399 H 32.68948880639766 91.76369233219827 53.320206326645234 H 0.0 **** 0.06
14400 H 31.624412064026558 90.36822021209036 53.61083128921911 H 0.0 **** 0.06
14401 C 39.40292775068636 0.27907400255054426 93.32820667694249 C 0.0 **** -0.24
14402 H 40.08362946399254 0.9189138885666353 92.76625576429447 H 0.0 **** 0.06
14403 H 39.73841307982744 -0.7561309837340673 93.2606051004045 H 0.0 **** 0.06
14404 H 38.39836999468261 0.36341691646015306 92.91193900912018 H 0.0 **** 0.06
14405 H 39.3906724227968 0.5902370678134048 94.37325984055705 H 0.0 **** 0.06
14406 C 112.55194503827373 34.76666387752604 68.38577839110735 C 0.0 **** -0.24
14407 H 113.06460280223124 35.67706328388988 68.69654623276283 H 0.0 **** 0.06
14408 H 111.8321087929681 34.47611466279008 69.15233220699102 H 0.0 **** 0.06
14409 H 113.28000112922825 33.967329982843495 68.2486895741094 H 0.0 **** 0.06
14410 H 112.02903186625291 34.946695305292025 67.44629170833443 H 0.0 **** 0.06
14411 C 103.8530923266955 30.656573807795738 22.002145173148335 C 0.0 **** -0.24
14412 H 104.67351517513933 31.357637294119428 22.161735741608027 H 0.0 **** 0.06
14413 H 103.78554726729817 29.976588492351297 22.85108705469952 H 0.0 **** 0.06
14414 H 104.03734843888199 30.085339753909835 21.09166062692742 H 0.0 **** 0.06
14415 H 102.91877754920645 31.207891370639445 21.902172759451958 H 0.0 **** 0.06
14416 C 23.52996949633902 47.81446311089272 60.15065521694831 C 0.0 **** -0.24
14417 H 23.419597404262504 48.0995173496876 59.10411051125861 H 0.0 **** 0.06
14418 H 24.580156504598108 47.880104863153775 60.43534473731438 H 0.0 **** 0.06
14419 H 23.17962640729823 46.79114175267944 60.287731319134494 H 0.0 **** 0.06
14420 H 22.94154993159168 48.486861406154134 60.77451708176123 H 0.0 **** 0.06
14421 C 5.194473097040998 98.61172655554154 91.16334286080834 C 0.0 **** -0.24
14422 H 5.02372601143162 97.5459908987279 91.32257466526194 H 0.0 **** 0.06
14423 H 4.258841987279254 99.15352431633485 91.30298647357002 H 0.0 **** 0.06
14424 H 5.5599784995637265 98.7724716512767 90.14961682936608 H 0.0 **** 0.06
14425 H 5.934412458169334 98.97131581813156 91.87857291150947 H 0.0 **** 0.06
14426 C 114.95775124093764 74.07314658001884 115.57422315215736 C 0.0 **** -0.24
14427 H 114.19456213324129 73.67495105461893 116.24182733278249 H 0.0 **** 0.06
14428 H 115.51646531897352 73.24899801917766 115.12933833537483 H 0.0 **** 0.06
14429 H 115.63837207125529 74.71054187171295 116.13820117210258 H 0.0 **** 0.06
14430 H 114.48163475347977 74.65673801788266 114.78548688502 H 0.0 **** 0.06
14431 C 65.3561646914406 25.414956498338228 77.75728265457124 C 0.0 **** -0.24
14432 H 64.99087104711919 25.31730461643528 78.77926960876002 H 0.0 **** 0.06
14433 H 65.98811337779074 24.56015518080116 77.51400229598946 H 0.0 **** 0.06
14434 H 65.93496678536269 26.333499460821514 77.66525211092963 H 0.0 **** 0.06
14435 H 64.50947630695424 25.448240103689074 77.07090903792573 H 0.0 **** 0.06
14436 C 15.262857988397855 76.89379319256079 113.43739371785355 C 0.0 **** -0.24
14437 H 14.74356198692577 76.33765077246417 114.21809019991996 H 0.0 **** 0.06
14438 H 15.095198543898647 76.41141742586984 112.47395939955949 H 0.0 **** 0.06
14439 H 16.33069065863451 76.91257449933462 113.65405550257832 H 0.0 **** 0.06
14440 H 14.882033784578226 77.91492028884093 113.40522041371881 H 0.0 **** 0.06
14441 C 100.98565856445873 8.082302248569473 34.049512088190504 C 0.0 **** -0.24
14442 H 101.65491964326797 7.927587158568702 34.89541900920577 H 0.0 **** 0.06
14443 H 101.55607522261737 8.031985317196735 33.12149549122956 H 0.0 **** 0.06
14444 H 100.5140845150013 9.061418187086979 34.134550970462286 H 0.0 **** 0.06
14445 H 100.21794035929115 7.3080223271549265 34.047484568790686 H 0.0 **** 0.06
14446 C 87.3849190198338 0.6161997950579376 4.920965572156078 C 0.0 **** -0.24
14447 H 88.3437388843245 0.2571004323374666 5.296306589625516 H 0.0 **** 0.06
14448 H 87.49774632910712 0.934690819814918 3.884653759604788 H 0.0 **** 0.06
14449 H 87.05067996542948 1.4593938193260385 5.526085262572948 H 0.0 **** 0.06
14450 H 86.64918200505358 -0.18593865283725108 4.9767297966738795 H 0.0 **** 0.06
14451 C 73.56476046301576 10.770015908144671 103.02254331366333 C 0.0 **** -0.24
14452 H 73.75218427177646 11.030092830844978 101.98139157375277 H 0.0 **** 0.06
14453 H 74.4101204357857 10.202988560630388 103.4130599463387 H 0.0 **** 0.06
14454 H 72.66010124548808 10.16533332848661 103.08818170756075 H 0.0 **** 0.06
14455 H 73.43657767412743 11.680299590055142 103.60712044895683 H 0.0 **** 0.06
14456 C 55.72411681304607 116.68637224032707 40.53320710359276 C 0.0 **** -0.24
14457 H 55.03751299428802 116.96527290571618 41.33266650532755 H 0.0 **** 0.06
14458 H 56.38719246487523 115.89621109867969 40.88472912261739 H 0.0 **** 0.06
14459 H 56.31436570466934 117.55445496751574 40.24209671745933 H 0.0 **** 0.06
14460 H 55.155245474097 116.32933932724339 39.67448967268007 H 0.0 **** 0.06
14461 C 35.49906769966205 86.28487430764557 31.399312935282694 C 0.0 **** -0.24
14462 H 34.44377986335763 86.22578599463742 31.133715801525568 H 0.0 **** 0.06
14463 H 35.63114248436588 87.0073998187562 32.203544087437024 H 0.0 **** 0.06
14464 H 36.07510065580314 86.59904958456866 30.528857513225944 H 0.0 **** 0.06
14465 H 35.845929732180565 85.30501268699248 31.72917457810894 H 0.0 **** 0.06
14466 C 73.69316438770134 25.061038066481274 57.16297676642719 C 0.0 **** -0.24
14467 H 74.1297108104193 26.031688565021255 56.9283759994191 H 0.0 **** 0.06
14468 H 74.35983975322021 24.51413367300522 57.82952176456706 H 0.0 **** 0.06
14469 H 73.55295634323298 24.492821874873258 56.24299099817492 H 0.0 **** 0.06
14470 H 72.72884346934447 25.205076913419703 57.65069359714934 H 0.0 **** 0.06
14471 C 75.1130000397895 98.2342905635046 122.80540926337824 C 0.0 **** -0.24
14472 H 74.41765973650513 98.91150369535757 123.30211539672081 H 0.0 **** 0.06
14473 H 75.70997579448152 97.71426365322628 123.55519904438471 H 0.0 **** 0.06
14474 H 75.76953775204996 98.80510497927503 122.14843904907737 H 0.0 **** 0.06
14475 H 74.55385784565966 97.50642822795658 122.21789406592801 H 0.0 **** 0.06
14476 C 21.181273852636366 120.00480061860208 101.30156725161527 C 0.0 **** -0.24
14477 H 20.35308378986832 120.21220687061252 100.62450999272721 H 0.0 **** 0.06
14478 H 20.90605742886953 119.19041064588154 101.97306311526438 H 0.0 **** 0.06
14479 H 21.4060713668446 120.89675938684945 101.88577637861982 H 0.0 **** 0.06
14480 H 22.06020150508536 119.71770967475699 100.72411189040287 H 0.0 **** 0.06
14481 C 95.32409088416517 3.477483268798636 6.051045066477371 C 0.0 **** -0.24
14482 H 94.2852278453322 3.7117852099476067 5.814182219059262 H 0.0 **** 0.06
14483 H 95.72546027439296 2.8040477713828693 5.294198375000519 H 0.0 **** 0.06
14484 H 95.37384762331672 2.9984504946668835 7.02882805375117 H 0.0 **** 0.06
14485 H 95.90859175630196 4.397503392308309 6.067275368521692 H 0.0 **** 0.06
14486 C 89.61778522467374 98.05891159694657 90.6127217741583 C 0.0 **** -0.24
14487 H 90.40418461321013 97.34719893121239 90.8640040659538 H 0.0 **** 0.06
14488 H 90.06722911171192 98.98629125555206 90.25609181456471 H 0.0 **** 0.06
14489 H 89.01798902522086 98.26463642839408 91.49993966203962 H 0.0 **** 0.06
14490 H 88.98326264688811 97.63909875038757 89.83289684541572 H 0.0 **** 0.06
14491 C 3.8546334806742095 80.96527198610086 23.592816845147695 C 0.0 **** -0.24
14492 H 3.364249845498108 81.78695609104446 23.07093196908886 H 0.0 **** 0.06
14493 H 3.2951501726637957 80.72275525358899 24.49619149604473 H 0.0 **** 0.06
14494 H 4.869474737953823 81.2603084165311 23.860903534056092 H 0.0 **** 0.06
14495 H 3.891294858401409 80.09205933044676 22.94170987128257 H 0.0 **** 0.06
14496 C 90.50469626901628 23.555055735649063 45.585293313372205 C 0.0 **** -0.24
14497 H 90.86093000700986 24.560223706763253 45.81278315897461 H 0.0 **** 0.06
14498 H 91.28691007580352 23.002548726280054 45.06347309268571 H 0.0 **** 0.06
14499 H 89.6197870766488 23.618291289635096 44.95231094943708 H 0.0 **** 0.06
14500 H 90.25278018634747 23.03973731318834 46.512791011623904 H 0.0 **** 0.06
14501 C 81.3880672657487 30.382772185860745 3.9189103023795155 C 0.0 **** -0.24
14502 H 82.28965074030015 30.491679854044577 3.3167143001163595 H 0.0 **** 0.06
14503 H 81.32103520166048 29.359819575702005 4.291082894627891 H 0.0 **** 0.06
14504 H 80.51353950666994 30.605148029526333 3.306192607169578 H 0.0 **** 0.06
14505 H 81.42727030330012 31.07469168349442 4.760494084216646 H 0.0 **** 0.06
14506 C 62.91290788133955 81.23828352643227 108.14437881422027 C 0.0 **** -0.24
14507 H 62.393178386461045 81.63674834582736 107.27202117921449 H 0.0 **** 0.06
14508 H 63.97171265817627 81.11946858731585 107.91372067507645 H 0.0 **** 0.06
14509 H 62.486717397441964 80.26971539399665 108.40844552157994 H 0.0 **** 0.06
14510 H 62.7975727997885 81.92670533367823 108.98072973737024 H 0.0 **** 0.06
14511 C 18.197236779499917 76.64206266066749 68.65748862684785 C 0.0 **** -0.24
14512 H 18.2606455870434 77.64025458009431 69.09266331865894 H 0.0 **** 0.06
14513 H 19.12545249251454 76.10368815713399 68.84826906726545 H 0.0 **** 0.06
14514 H 18.03888670217995 76.7240483788777 67.58255036887502 H 0.0 **** 0.06
14515 H 17.36386195988979 76.10312727969124 69.10734719487851 H 0.0 **** 0.06
14516 C 8.584335036063717 123.62107939464802 49.199074070076904 C 0.0 **** -0.24
14517 H 8.315324856242555 123.0152046811513 50.06498060257172 H 0.0 **** 0.06
14518 H 9.449162306333687 124.2391023332548 49.44352494282168 H 0.0 **** 0.06
14519 H 7.743982497370364 124.26173870790736 48.92990495037773 H 0.0 **** 0.06
14520 H 8.82776672276124 122.96883064217204 48.3614171043331 H 0.0 **** 0.06
14521 C 37.815847148129954 10.413861959946047 18.56461831109675 C 0.0 **** -0.24
14522 H 37.21655393934564 9.68860933770182 18.01415850926506 H 0.0 **** 0.06
14523 H 37.157095684411246 11.107036948252386 19.087790992439096 H 0.0 **** 0.06
14524 H 38.44654991776808 10.966438467681542 17.868754181840956 H 0.0 **** 0.06
14525 H 38.442885199722014 9.891981964925662 19.287752654647647 H 0.0 **** 0.06
14526 C 112.63652966166379 41.51267448482042 102.89816979085832 C 0.0 **** -0.24
14527 H 111.89538752502898 42.28943740846739 102.70810023232323 H 0.0 **** 0.06
14528 H 112.65900285945415 41.28683661028077 103.9642734049221 H 0.0 **** 0.06
14529 H 113.61886435184567 41.86069695486191 102.57925819187597 H 0.0 **** 0.06
14530 H 112.37088001049776 40.613556233465715 102.34123496821118 H 0.0 **** 0.06
14531 C 64.44525515041595 119.4068732024768 53.473470116769164 C 0.0 **** -0.24
14532 H 63.51591224983984 118.92270331970138 53.17501919129087 H 0.0 **** 0.06
14533 H 65.13640457402735 119.4174090919172 52.62998553560203 H 0.0 **** 0.06
14534 H 64.89195220966339 118.85591429393588 54.30135220125743 H 0.0 **** 0.06
14535 H 64.23838928807609 120.43016853470071 53.78672701240134 H 0.0 **** 0.06
14536 C 82.81924851321018 28.58157910820094 57.332692666754554 C 0.0 **** -0.24
14537 H 83.28014850564821 27.932947674816887 58.07825367463664 H 0.0 **** 0.06
14538 H 81.95813889577464 28.07654082754783 56.895529943618016 H 0.0 **** 0.06
14539 H 83.54410721002284 28.80853867300641 56.55136629763095 H 0.0 **** 0.06
14540 H 82.49522162859938 29.507668221601534 57.808489144444536 H 0.0 **** 0.06
14541 C 0.22397253869262101 34.34592809548005 9.12281070493556 C 0.0 **** -0.24
14542 H 0.3694180265859046 33.34081719515319 8.72512304709609 H 0.0 **** 0.06
14543 H 1.1681678275189569 34.88853549642542 9.089687989606404 H 0.0 **** 0.06
14544 H -0.12257212289044617 34.281486215498916 10.154150483212192 H 0.0 **** 0.06
14545 H -0.5188430963505937 34.869799920427056 8.5215920027876 H 0.0 **** 0.06
14546 C 101.3131558203913 45.782340982484754 39.53481943477914 C 0.0 **** -0.24
14547 H 101.20665345613911 45.344601356777844 38.5418148916944 H 0.0 **** 0.06
14548 H 100.47055074261569 45.48064487199383 40.155946456563356 H 0.0 **** 0.06
14549 H 101.33374253332455 46.86938540455418 39.45188352480801 H 0.0 **** 0.06
14550 H 102.24160324822391 45.434472496632 39.987198230012666 H 0.0 **** 0.06
14551 C 15.597149873286014 80.3605546177453 15.28512114375468 C 0.0 **** -0.24
14552 H 16.1203111887649 80.48475532030703 16.23354623780466 H 0.0 **** 0.06
14553 H 16.3247164318893 80.22682797486235 14.484696390990337 H 0.0 **** 0.06
14554 H 14.993359686475657 81.24445843358835 15.084200610586038 H 0.0 **** 0.06
14555 H 14.95167605483519 79.48353928465453 15.339420282884191 H 0.0 **** 0.06
14556 C 122.88731940147856 76.94497080073558 36.62028570623369 C 0.0 **** -0.24
14557 H 122.55907881759104 76.8556218459207 37.65554198227781 H 0.0 **** 0.06
14558 H 123.10425564957511 77.98970486152993 36.396569057018155 H 0.0 **** 0.06
14559 H 122.0994617414847 76.58613464759588 35.957644283376396 H 0.0 **** 0.06
14560 H 123.7871838499051 76.34710772725838 36.472270569705444 H 0.0 **** 0.06
14561 C 78.44587915100402 7.923047735591467 79.03897811400981 C 0.0 **** -0.24
14562 H 78.24889289858051 7.359636127572912 78.12637385369898 H 0.0 **** 0.06
14563 H 78.3939925975983 8.990653461364417 78.82449378576717 H 0.0 **** 0.06
14564 H 79.44062013468815 7.67482126301806 79.41107323629562 H 0.0 **** 0.06
14565 H 77.70118813606543 7.665911474288947 79.79247194967378 H 0.0 **** 0.06
14566 C 9.282826095054077 88.24730601821983 98.42071480795067 C 0.0 **** -0.24
14567 H 10.158012753931928 87.69409917356654 98.76211080927175 H 0.0 **** 0.06
14568 H 8.916720658150254 88.88003625362916 99.22906680420664 H 0.0 **** 0.06
14569 H 8.502604754902322 87.54482280353096 98.12627849158304 H 0.0 **** 0.06
14570 H 9.555290490451739 88.867217531123 97.56712209167432 H 0.0 **** 0.06
14571 C 80.72455514201914 74.81853218800862 88.8213918485194 C 0.0 **** -0.24
14572 H 80.54222572875568 75.63880660229455 89.51477450730394 H 0.0 **** 0.06
14573 H 81.78352212103866 74.78948080893228 88.56379198604313 H 0.0 **** 0.06
14574 H 80.13447534733953 74.96958362458768 87.91669406427286 H 0.0 **** 0.06
14575 H 80.43797399228032 73.87689148396734 89.28953363176007 H 0.0 **** 0.06
14576 C 107.5222084915133 2.8756809858358885 24.394059279985896 C 0.0 **** -0.24
14577 H 108.54598789970105 2.7737522705000703 24.75414117510732 H 0.0 **** 0.06
14578 H 107.53399126515089 3.1194040280500293 23.33161823987622 H 0.0 **** 0.06
14579 H 107.02186403499552 3.6726106037613224 24.94445398437952 H 0.0 **** 0.06
14580 H 106.98771520061577 1.9378700510702807 24.546824791553263 H 0.0 **** 0.06
14581 C 40.65701970242978 27.019088920766222 72.58453611631629 C 0.0 **** -0.24
14582 H 41.46311196971331 27.680541803682075 72.26884008121635 H 0.0 **** 0.06
14583 H 39.7566972668952 27.24333508688673 72.01136952187339 H 0.0 **** 0.06
14584 H 40.45900872881529 27.169592237952315 73.64647829561763 H 0.0 **** 0.06
14585 H 40.94875590955192 25.98315909894066 72.41361782280697 H 0.0 **** 0.06
14586 C 82.38221208173945 0.592145648977425 69.16765803392425 C 0.0 **** -0.24
14587 H 82.54860946679403 0.18706774489417377 70.16581058137658 H 0.0 **** 0.06
14588 H 81.34525518691225 0.915320623669249 69.07525105606993 H 0.0 **** 0.06
14589 H 82.59112477686992 -0.17815043407553155 68.42454754624222 H 0.0 **** 0.06
14590 H 83.0439030496519 1.4425843276561263 69.00640119133399 H 0.0 **** 0.06
14591 C 64.33138501026906 30.745776955507814 54.52487660394456 C 0.0 **** -0.24
14592 H 64.8907001336851 30.299625915865434 53.70230103190492 H 0.0 **** 0.06
14593 H 63.279523327562856 30.472191602991145 54.43965462877736 H 0.0 **** 0.06
14594 H 64.4296732397082 31.830861908281562 54.48316552377368 H 0.0 **** 0.06
14595 H 64.7275728751714 30.381306023445426 55.472512508278186 H 0.0 **** 0.06
14596 C 52.48093167235646 19.44084465481322 4.806131288645275 C 0.0 **** -0.24
14597 H 52.13327330609491 19.733487174959393 3.816013288038988 H 0.0 **** 0.06
14598 H 53.215756867721325 20.164692704625793 5.1616038714516606 H 0.0 **** 0.06
14599 H 52.94029956353333 18.453540699021076 4.753445700164292 H 0.0 **** 0.06
14600 H 51.636379886252854 19.412400471669372 5.494181347320932 H 0.0 **** 0.06
14601 C 99.84381136933122 58.588262402072004 63.104836688427454 C 0.0 **** -0.24
14602 H 100.42487304404044 59.29840247580927 62.517559033044364 H 0.0 **** 0.06
14603 H 99.01899896718284 58.20731838655105 62.50241252011068 H 0.0 **** 0.06
14604 H 99.4475683723396 59.08764602387734 63.98941638185882 H 0.0 **** 0.06
14605 H 100.4837610816231 57.76076715026436 63.41086556321724 H 0.0 **** 0.06
14606 C 11.9681397392674 114.15374919240352 93.12660970784088 C 0.0 **** -0.24
14607 H 12.304466603991528 114.7952056117475 93.941513161361 H 0.0 **** 0.06
14608 H 11.892596347294699 113.12536855793446 93.48209283850242 H 0.0 **** 0.06
14609 H 12.682908173154317 114.20327715659207 92.30561535040708 H 0.0 **** 0.06
14610 H 10.991761926550225 114.49086782008575 92.7787144665137 H 0.0 **** 0.06
14611 C 56.62550960291219 113.49702859068447 98.63420709773217 C 0.0 **** -0.24
14612 H 56.49326886440073 113.28377782037916 97.57333376886304 H 0.0 **** 0.06
14613 H 57.24277751526196 114.38795829981098 98.75050540157311 H 0.0 **** 0.06
14614 H 57.11513427186017 112.65031571465295 99.11619023261956 H 0.0 **** 0.06
14615 H 55.652899736533556 113.6655226210957 99.09606475281645 H 0.0 **** 0.06
14616 C 111.63765643116278 2.6519630983104463 92.21672192811184 C 0.0 **** -0.24
14617 H 110.77135503806903 2.006091740766905 92.35687808512029 H 0.0 **** 0.06
14618 H 112.36682101663445 2.458786377674528 93.00475528428062 H 0.0 **** 0.06
14619 H 111.32409040500443 3.695157661512269 92.25918570781253 H 0.0 **** 0.06
14620 H 112.09033207224121 2.4467995239033087 91.24634034954799 H 0.0 **** 0.06
14621 C 64.5214774601498 83.9579078601395 76.48083622101973 C 0.0 **** -0.24
14622 H 64.7516299207663 84.70380233167754 77.24171203069825 H 0.0 **** 0.06
14623 H 65.0083303332509 84.23219670788743 75.54440593967371 H 0.0 **** 0.06
14624 H 63.44293283978715 83.91363719610854 76.32995444315438 H 0.0 **** 0.06
14625 H 64.8836441402925 82.98308754519019 76.80662960407878 H 0.0 **** 0.06
14626 C 68.67368350737058 95.5947544209086 36.872975316442165 C 0.0 **** -0.24
14627 H 67.96758434810846 95.5225038164671 37.70101010201239 H 0.0 **** 0.06
14628 H 68.15622505428566 95.38770486673013 35.93587501478578 H 0.0 **** 0.06
14629 H 69.47411583096122 94.86818207262121 37.01409387360033 H 0.0 **** 0.06
14630 H 69.09543656282604 96.5991907969007 36.84194929624729 H 0.0 **** 0.06
14631 C 115.13500753877264 100.52460948169468 25.46689171670088 C 0.0 **** -0.24
14632 H 115.9197188514217 101.22961896768837 25.192666476153903 H 0.0 **** 0.06
14633 H 115.55979192139002 99.72660604491013 26.076709316695222 H 0.0 **** 0.06
14634 H 114.69785787400798 100.09818801995777 24.56420594791664 H 0.0 **** 0.06
14635 H 114.3626615082707 101.0440248942226 26.033985126037877 H 0.0 **** 0.06
14636 C 123.35022190828374 114.48694583719521 99.85214581248997 C 0.0 **** -0.24
14637 H 123.94733703956831 113.77678020334022 99.28026908624835 H 0.0 **** 0.06
14638 H 122.90565692951532 113.97936495668384 100.70923299095705 H 0.0 **** 0.06
14639 H 122.56095075801744 114.88939892071733 99.21839571103195 H 0.0 **** 0.06
14640 H 123.98766549080813 115.29919189861087 100.20024734410507 H 0.0 **** 0.06
14641 C 65.92305193302491 57.446157997086985 44.196520988704606 C 0.0 **** -0.24
14642 H 66.76917260013937 57.3413220358111 43.51714703856483 H 0.0 **** 0.06
14643 H 65.92623353240663 56.62148824617543 44.90908914161906 H 0.0 **** 0.06
14644 H 64.99522810809026 57.429670732831894 43.62519901574791 H 0.0 **** 0.06
14645 H 66.00348046109798 58.39082385819114 44.73275067714307 H 0.0 **** 0.06
14646 C 53.455966469795186 112.14617054186166 77.98182878587272 C 0.0 **** -0.24
14647 H 52.751361210448096 112.83797048336572 78.44252058423609 H 0.0 **** 0.06
14648 H 54.4211461646255 112.63899279526268 77.85819959205145 H 0.0 **** 0.06
14649 H 53.07725047627471 111.83899991262328 77.00695181353784 H 0.0 **** 0.06
14650 H 53.573415911522176 111.26979211921707 78.61903533270909 H 0.0 **** 0.06
14651 C 62.130785107935665 49.94811853071732 73.37537649184014 C 0.0 **** -0.24
14652 H 62.80910582251565 50.49450172991649 74.02918610373163 H 0.0 **** 0.06
14653 H 61.296329806236045 50.59226056953173 73.098206710003 H 0.0 **** 0.06
14654 H 61.75336708408253 49.06790882444173 73.89671636554203 H 0.0 **** 0.06
14655 H 62.66399198533547 49.63703092914429 72.47686346820804 H 0.0 **** 0.06
14656 C 68.74032484655004 104.67410739644545 10.814854057681288 C 0.0 **** -0.24
14657 H 68.94783783235155 103.7749299387593 11.39526424576244 H 0.0 **** 0.06
14658 H 67.66274749685812 104.78616210959756 10.69309393281079 H 0.0 **** 0.06
14659 H 69.20963209509709 104.58839619642882 9.833826990780171 H 0.0 **** 0.06
14660 H 69.1405086502591 105.54324152517236 11.334998642170063 H 0.0 **** 0.06
14661 C 47.478012659500344 71.05569075074905 122.99096567973402 C 0.0 **** -0.24
14662 H 46.94925642842491 71.58375883945084 123.78410792251876 H 0.0 **** 0.06
14663 H 47.78851082607218 71.76731113528126 122.22511641899169 H 0.0 **** 0.06
14664 H 46.81706433930247 70.3099408663931 122.54754577008012 H 0.0 **** 0.06
14665 H 48.35645369832032 70.56186451688251 123.40590866085975 H 0.0 **** 0.06
14666 C 119.50755010245572 119.99444131190916 58.30314811572947 C 0.0 **** -0.24
14667 H 120.53618128511695 119.81664957433183 58.61823816935242 H 0.0 **** 0.06
14668 H 119.28956359322885 121.0614014324269 58.36331261742646 H 0.0 **** 0.06
14669 H 118.82826926567975 119.44653729620411 58.95536616426267 H 0.0 **** 0.06
14670 H 119.37972919876916 119.65437989416236 57.275639606224104 H 0.0 **** 0.06
14671 C 46.73693957135902 73.57974762101614 64.68808979000269 C 0.0 **** -0.24
14672 H 45.95319998071108 74.26716588040952 64.36937030155624 H 0.0 **** 0.06
14673 H 46.29206324544262 72.623123843281 64.95832968488907 H 0.0 **** 0.06
14674 H 47.25612541181866 73.99737495956043 65.55131700876434 H 0.0 **** 0.06
14675 H 47.44665896278502 73.43505478571865 63.873233910672 H 0.0 **** 0.06
14676 C 77.25707211371596 117.57476920409988 43.72482017143972 C 0.0 **** -0.24
14677 H 76.95098983210751 118.00716662121286 44.67670763577803 H 0.0 **** 0.06
14678 H 77.65646630699014 118.35953303879543 43.08103231664478 H 0.0 **** 0.06
14679 H 76.39569657875928 117.11230875461061 43.242138841875146 H 0.0 **** 0.06
14680 H 78.02471054752436 116.8208653737689 43.897923984012834 H 0.0 **** 0.06
14681 C 15.09707851904301 117.60351791702718 66.98353556269686 C 0.0 **** -0.24
14682 H 14.2335580475347 118.2595172171477 66.86810988882566 H 0.0 **** 0.06
14683 H 14.762208429195795 116.5678514838298 67.03303021246842 H 0.0 **** 0.06
14684 H 15.627169496088868 117.85876311382822 67.9006495723133 H 0.0 **** 0.06
14685 H 15.764694177480976 117.73070476882958 66.13141025550242 H 0.0 **** 0.06
14686 C 4.195844267740341 76.83380772154788 5.275679969712428 C 0.0 **** -0.24
14687 H 4.117374326972623 75.93574947691525 4.6622619963576994 H 0.0 **** 0.06
14688 H 4.463257195775924 77.6823101658037 4.645624692020874 H 0.0 **** 0.06
14689 H 4.963768716214162 76.68894287520988 6.035699006715959 H 0.0 **** 0.06
14690 H 3.238572288693689 77.0273783850829 5.759471714394408 H 0.0 **** 0.06
14691 C 27.151640473467765 98.55307974691178 99.23924148153472 C 0.0 **** -0.24
14692 H 26.696673128424933 99.31701613983404 99.86980203758671 H 0.0 **** 0.06
14693 H 26.6287030931814 98.51335380859223 98.28308662169391 H 0.0 **** 0.06
14694 H 27.08051186975967 97.58437269894418 99.73329416485484 H 0.0 **** 0.06
14695 H 28.200161900636687 98.79975211273111 99.07084820823363 H 0.0 **** 0.06
14696 C 11.564093418562834 16.46129339275052 115.07343153075266 C 0.0 **** -0.24
14697 H 10.566617203721336 16.244746616784752 114.68996126526187 H 0.0 **** 0.06
14698 H 11.48688171973177 17.146287040245625 115.91791644824255 H 0.0 **** 0.06
14699 H 12.163818237611366 16.91969627347565 114.28615094007029 H 0.0 **** 0.06
14700 H 12.03674033388262 15.534871734351384 115.39783937048944 H 0.0 **** 0.06
14701 C 87.83631155627413 52.82062223982831 23.74742920931098 C 0.0 **** -0.24
14702 H 88.59323926648682 52.95122324016833 22.974771155580214 H 0.0 **** 0.06
14703 H 88.23159159760874 52.1848173224291 24.539713570319066 H 0.0 **** 0.06
14704 H 86.95199157216189 52.35424252605 23.313981636770308 H 0.0 **** 0.06
14705 H 87.5684237888392 53.79220587066561 24.161250474574032 H 0.0 **** 0.06
14706 C 101.22195159707458 94.20663031978418 119.1063696533517 C 0.0 **** -0.24
14707 H 100.94151061429436 93.58491486157811 119.95687331260133 H 0.0 **** 0.06
14708 H 101.35326567392678 93.57903515538888 118.22530348553575 H 0.0 **** 0.06
14709 H 102.15499507942441 94.72533240039954 119.32653031776209 H 0.0 **** 0.06
14710 H 100.43586682943112 94.9383785883397 118.9167885830754 H 0.0 **** 0.06
14711 C 45.889546013622414 31.169687004741377 24.608311170370314 C 0.0 **** -0.24
14712 H 45.135759061077366 30.39985260625025 24.444028117501333 H 0.0 **** 0.06
14713 H 45.6411213344925 31.734358485264863 25.507222752342386 H 0.0 **** 0.06
14714 H 45.913040975116566 31.842580771841142 23.75067679987191 H 0.0 **** 0.06
14715 H 46.866159620977214 30.70139043629314 24.73080970857825 H 0.0 **** 0.06
14716 C 110.90446159957958 0.9931735455324144 105.42243826125578 C 0.0 **** -0.24
14717 H 110.37561904321467 1.9465258591766599 105.41270928085954 H 0.0 **** 0.06
14718 H 110.94824451074297 0.5919295233568675 104.40959225407597 H 0.0 **** 0.06
14719 H 110.37562764216634 0.2916356724531681 106.06848239574384 H 0.0 **** 0.06
14720 H 111.91592021507918 1.1423397600227077 105.79892672034303 H 0.0 **** 0.06
14721 C 77.53189394338384 121.1980516021267 8.78442117363057 C 0.0 **** -0.24
14722 H 77.07061115900383 121.90345847831131 8.093332154314627 H 0.0 **** 0.06
14723 H 78.51853821725743 121.56404450999202 9.071940010557142 H 0.0 **** 0.06
14724 H 77.63189008987185 120.22684422336644 8.299309093150683 H 0.0 **** 0.06
14725 H 76.90731689967659 121.09876287663408 9.672345712425333 H 0.0 **** 0.06
14726 C 63.001994108033955 52.63961399645355 59.79442327058169 C 0.0 **** -0.24
14727 H 62.36502517535473 53.43522507692663 60.181219479341664 H 0.0 **** 0.06
14728 H 62.38715303913244 51.89660504963204 59.28658287619618 H 0.0 **** 0.06
14729 H 63.535181826344854 52.167655921163146 60.6197645004202 H 0.0 **** 0.06
14730 H 63.720006531477054 53.06058547331935 59.0902614217584 H 0.0 **** 0.06
14731 C 56.0603571474133 95.70268322281154 68.97155765908826 C 0.0 **** -0.24
14732 H 55.57206136703067 96.20449463892871 68.13608578699005 H 0.0 **** 0.06
14733 H 56.901932441591924 95.11855416226578 68.60136191893416 H 0.0 **** 0.06
14734 H 55.34714974098162 95.04152707468793 69.46536686587625 H 0.0 **** 0.06
14735 H 56.417859922074655 96.44650131810133 69.68339197765913 H 0.0 **** 0.06
14736 C 14.555334115555922 0.687551282094006 104.68621604076485 C 0.0 **** -0.24
14737 H 13.921538518532103 0.35992082779043244 105.51026223670486 H 0.0 **** 0.06
14738 H 14.10175407547554 1.5507826971529255 104.20020644716138 H 0.0 **** 0.06
14739 H 14.660416999676585 -0.12240446849762066 103.96559347409654 H 0.0 **** 0.06
14740 H 15.537866787177904 0.9606710646871477 105.07133530830505 H 0.0 **** 0.06
14741 C 44.50539214434099 49.2968379102434 84.9378855714358 C 0.0 **** -0.24
14742 H 43.99838789941461 48.48977660123357 85.46700792083232 H 0.0 **** 0.06
14743 H 44.97202218538598 49.96737488175689 85.66035864882883 H 0.0 **** 0.06
14744 H 43.779428013785235 49.85147360334734 84.34202894332589 H 0.0 **** 0.06
14745 H 45.26902663894748 48.87797422357691 84.28249845036152 H 0.0 **** 0.06
14746 C 92.97225608805228 113.9431181689387 81.04234742256381 C 0.0 **** -0.24
14747 H 93.75641475345321 114.59453834083 81.42745990659824 H 0.0 **** 0.06
14748 H 93.40863659991668 112.99319448718083 80.73356148322256 H 0.0 **** 0.06
14749 H 92.49245544786992 114.41843362749607 80.18740636519237 H 0.0 **** 0.06
14750 H 92.23127545305282 113.76677729435504 81.8222732647319 H 0.0 **** 0.06
14751 C 73.77900788991286 63.480118861559845 41.32819671307266 C 0.0 **** -0.24
14752 H 74.55984083232026 64.18146347072633 41.03118416556384 H 0.0 **** 0.06
14753 H 72.83568038716624 64.01502182459507 41.440075090494645 H 0.0 **** 0.06
14754 H 74.04850810163768 63.0163604931476 42.27724915354952 H 0.0 **** 0.06
14755 H 73.67235612924082 62.710681801671 40.56353030151291 H 0.0 **** 0.06
14756 C 66.56016326868513 59.22853294273652 13.049346928870051 C 0.0 **** -0.24
14757 H 66.51500466984314 59.16583364300517 11.962116869284642 H 0.0 **** 0.06
14758 H 67.5977646614989 59.34776837260293 13.362627978329755 H 0.0 **** 0.06
14759 H 66.15140342870353 58.31619125956182 13.483433028213867 H 0.0 **** 0.06
14760 H 65.97654001672274 60.085094099756816 13.388015852407676 H 0.0 **** 0.06
14761 C 20.33075980074011 70.96606680988054 39.5770647672081 C 0.0 **** -0.24
14762 H 20.741973902153973 70.35870971229778 40.38316278125576 H 0.0 **** 0.06
14763 H 20.471238230775327 72.0220161830662 39.81006796469475 H 0.0 **** 0.06
14764 H 19.26663693702426 70.75556047675732 39.46999785647515 H 0.0 **** 0.06
14765 H 20.843190133007056 70.72798086740065 38.64503046640675 H 0.0 **** 0.06
14766 C 3.73096652875293 39.539698977617405 85.88046869866261 C 0.0 **** -0.24
14767 H 4.742641835197418 39.43722807223995 86.27093688748431 H 0.0 **** 0.06
14768 H 3.7710554321976417 39.688034767303094 84.80113598562173 H 0.0 **** 0.06
14769 H 3.245496734754255 40.39544629558907 86.34825523608018 H 0.0 **** 0.06
14770 H 3.163616036302784 38.635279430492886 86.1016099297199 H 0.0 **** 0.06
14771 C 54.78548381747146 29.650809998964675 18.96355351551273 C 0.0 **** -0.24
14772 H 55.85192885139881 29.44377549395827 19.051924346251724 H 0.0 **** 0.06
14773 H 54.329684998095956 28.924963745911555 18.289869331941702 H 0.0 **** 0.06
14774 H 54.64213596956128 30.655467753314454 18.56591310899489 H 0.0 **** 0.06
14775 H 54.319101101336855 29.578694865051062 19.945076398219328 H 0.0 **** 0.06
14776 C 38.71899939437094 47.06301441442871 2.0433824124191915 C 0.0 **** -0.24
14777 H 39.30994529841621 47.2948514063106 1.1571046491930588 H 0.0 **** 0.06
14778 H 38.87410443518081 46.020400501192796 2.321082552034568 H 0.0 **** 0.06
14779 H 37.66376459194993 47.22954858495129 1.8290029797242653 H 0.0 **** 0.06
14780 H 39.03019914700462 47.70891568236257 2.8648609658634427 H 0.0 **** 0.06
14781 C 118.04193262689776 106.28982820461962 81.92345856289951 C 0.0 **** -0.24
14782 H 118.92971293694767 106.29700231775776 81.29115772051402 H 0.0 **** 0.06
14783 H 117.19328003876916 106.68005391948275 81.36072111085255 H 0.0 **** 0.06
14784 H 118.2162125170135 106.91427595148953 82.79947238544055 H 0.0 **** 0.06
14785 H 117.82998091647042 105.26960144544816 82.24136337916877 H 0.0 **** 0.06
14786 C 77.84445405286111 8.074483751724273 3.6143611162169265 C 0.0 **** -0.24
14787 H 77.51436787436175 9.063218994159357 3.297434653291603 H 0.0 **** 0.06
14788 H 78.72988570011987 7.788030377205359 3.046342629883796 H 0.0 **** 0.06
14789 H 77.04785585736141 7.351025190813573 3.4350238892633485 H 0.0 **** 0.06
14790 H 78.08364535562711 8.09502158328742 4.677484539214845 H 0.0 **** 0.06
14791 C 111.34930708073298 75.20971293873785 75.02392436167449 C 0.0 **** -0.24
14792 H 110.57274863918926 75.95585353218095 74.85631799011767 H 0.0 **** 0.06
14793 H 111.52295068539696 74.65372635510514 74.10262065338685 H 0.0 **** 0.06
14794 H 111.03088922481327 74.52404878095271 75.80925515044787 H 0.0 **** 0.06
14795 H 112.27080999101034 75.7074157512819 75.32790802412757 H 0.0 **** 0.06
14796 C 121.7589274353852 4.285825703977935 28.224859882827218 C 0.0 **** -0.24
14797 H 121.18097750007898 4.6986643346508 29.051650570531336 H 0.0 **** 0.06
14798 H 122.28736289248617 3.393018722120786 28.56100930571384 H 0.0 **** 0.06
14799 H 122.47958111147324 5.02728189144068 27.87959082919687 H 0.0 **** 0.06
14800 H 121.08681466459208 4.02420753061034 27.407376500200087 H 0.0 **** 0.06
14801 C 14.657033224113025 123.93940202855958 5.711604863263062 C 0.0 **** -0.24
14802 H 13.71122054022403 123.47282683390264 5.988947105236434 H 0.0 **** 0.06
14803 H 15.1375564133719 124.34381493203762 6.603058412742655 H 0.0 **** 0.06
14804 H 14.470312469584698 124.74495929957092 5.001871449806629 H 0.0 **** 0.06
14805 H 15.307693790991856 123.19466570557674 5.253716974268514 H 0.0 **** 0.06
14806 C 109.0667299851504 88.60533874165785 81.21364123182062 C 0.0 **** -0.24
14807 H 108.72668512402197 88.28252616403367 82.19769216757575 H 0.0 **** 0.06
14808 H 109.59109407003751 89.55681398336189 81.3054121923295 H 0.0 **** 0.06
14809 H 108.2079333601285 88.72543393152559 80.55366382439951 H 0.0 **** 0.06
14810 H 109.74181223187429 87.85599741799572 80.79931130097683 H 0.0 **** 0.06
14811 C 9.103033899102826 88.60292641579619 111.26625409348188 C 0.0 **** -0.24
14812 H 9.713416464489967 87.73853607471447 111.52660796428154 H 0.0 **** 0.06
14813 H 9.696043821780819 89.30088005055427 110.67470638113593 H 0.0 **** 0.06
14814 H 8.76506420992203 89.09501663969615 112.17857280968667 H 0.0 **** 0.06
14815 H 8.238837372165733 88.27702875196084 110.68766635869062 H 0.0 **** 0.06
14816 C 71.02383489254852 113.98992508338188 107.63636400442047 C 0.0 **** -0.24
14817 H 70.20158678856937 114.61853042822031 107.29519973656737 H 0.0 **** 0.06
14818 H 70.67273391666389 113.33338883078045 108.43316825901569 H 0.0 **** 0.06
14819 H 71.83044557121934 114.61964053717247 108.0125599622063 H 0.0 **** 0.06
14820 H 71.38922936140008 113.38818768524544 106.80409018983647 H 0.0 **** 0.06
14821 C 59.65463935785493 82.54356454166091 117.82168480756158 C 0.0 **** -0.24
14822 H 58.815672128686884 82.63436737609258 117.13189170000749 H 0.0 **** 0.06
14823 H 59.73693995640414 81.51016223290291 118.15859427925997 H 0.0 **** 0.06
14824 H 59.490080326323636 83.1945077836584 118.68055729375764 H 0.0 **** 0.06
14825 H 60.574828011909915 82.83576315210209 117.31441900731414 H 0.0 **** 0.06
14826 C 66.34097496344103 94.21102231159782 99.02009311625355 C 0.0 **** -0.24
14827 H 66.84126295616079 93.33371979746744 99.42938139596475 H 0.0 **** 0.06
14828 H 66.94383026773852 95.0982086361512 99.2166984896988 H 0.0 **** 0.06
14829 H 65.36388566126593 94.32425699649029 99.49037509583928 H 0.0 **** 0.06
14830 H 66.21403156917395 94.0890928290785 97.94480932324173 H 0.0 **** 0.06
14831 C 82.94502711391479 56.051870821262895 55.06014488887064 C 0.0 **** -0.24
14832 H 82.634310646664 55.58812366413909 55.995967264651824 H 0.0 **** 0.06
14833 H 83.1484706949272 55.27682145415076 54.32031655303979 H 0.0 **** 0.06
14834 H 83.84835267719421 56.63930078570975 55.2293393220113 H 0.0 **** 0.06
14835 H 82.15171381896741 56.70376489505526 54.69606004494523 H 0.0 **** 0.06
14836 C 28.418558894737828 118.90418180657431 7.948230812562002 C 0.0 **** -0.24
14837 H 29.30048376859945 119.15556592945687 8.537209789144498 H 0.0 **** 0.06
14838 H 27.827317252248974 118.15767855559164 8.480147171472254 H 0.0 **** 0.06
14839 H 28.727967855917107 118.5025564676989 6.983429860588046 H 0.0 **** 0.06
14840 H 27.81811637352991 119.80022834886887 7.794458172507774 H 0.0 **** 0.06
14841 C 93.44568093081088 52.01867884898826 82.94322372901956 C 0.0 **** -0.24
14842 H 94.10094303114542 52.57071291301622 82.26890353991101 H 0.0 **** 0.06
14843 H 92.99980974129468 51.17950534029387 82.40992421164914 H 0.0 **** 0.06
14844 H 92.65819734944748 52.67954710522588 83.30561367021096 H 0.0 **** 0.06
14845 H 94.02453842263981 51.64704574617116 83.78860620757004 H 0.0 **** 0.06
14846 C 29.23433022604405 36.87661887256388 111.74754581814678 C 0.0 **** -0.24
14847 H 28.86269799472163 37.19870503387699 110.77537421006994 H 0.0 **** 0.06
14848 H 29.014509520516953 37.64181670703137 112.49266050001918 H 0.0 **** 0.06
14849 H 30.311715844663723 36.72190047954345 111.69162498279859 H 0.0 **** 0.06
14850 H 28.74867023174096 35.94317386956075 112.03091390056969 H 0.0 **** 0.06
14851 C 106.46606761501832 15.237170719687327 104.00954937280724 C 0.0 **** -0.24
14852 H 106.84575282943939 14.335211265579034 103.53019881822642 H 0.0 **** 0.06
14853 H 105.85562256876219 14.961308216779457 104.86991352743149 H 0.0 **** 0.06
14854 H 105.85949329448155 15.798965005939806 103.29830219271119 H 0.0 **** 0.06
14855 H 107.30324473778123 15.852482186347459 104.33857361393652 H 0.0 **** 0.06
14856 C 4.195654776472992 4.689801732745217 76.46433566632906 C 0.0 **** -0.24
14857 H 5.176282242081896 5.110414526712699 76.24085551279626 H 0.0 **** 0.06
14858 H 4.317320873706706 3.757728972885518 77.01507187562885 H 0.0 **** 0.06
14859 H 3.664356406900424 4.49606644862045 75.5327577764512 H 0.0 **** 0.06
14860 H 3.6256750866234313 5.397999647367772 77.06666915720943 H 0.0 **** 0.06
14861 C 36.340213507395816 49.21094090598143 18.864224255413546 C 0.0 **** -0.24
14862 H 36.13074410275246 48.143668103303355 18.78801352564915 H 0.0 **** 0.06
14863 H 37.077247834054845 49.381135085083315 19.64961848732142 H 0.0 **** 0.06
14864 H 35.42152432540007 49.74524569395038 19.105995382662968 H 0.0 **** 0.06
14865 H 36.731245264576955 49.57276055964451 17.91355429016275 H 0.0 **** 0.06
14866 C 105.60251770861133 5.627050774103111 53.534283561317864 C 0.0 **** -0.24
14867 H 105.95524144171848 5.639801018002942 52.50279525301448 H 0.0 **** 0.06
14868 H 105.38190365918777 4.6001641349404565 53.82912773316866 H 0.0 **** 0.06
14869 H 104.69915357976885 6.231047905637297 53.61656599327597 H 0.0 **** 0.06
14870 H 106.3731287978733 6.0353741070920535 54.186574295573735 H 0.0 **** 0.06
14871 C 107.1287367442207 21.069428128270005 73.02536194351507 C 0.0 **** -0.24
14872 H 108.19812614131004 20.98436845420659 72.83047245101756 H 0.0 **** 0.06
14873 H 106.91526215330816 20.721106551999696 74.03635473975089 H 0.0 **** 0.06
14874 H 106.57893641725852 20.460679992887094 72.30690104303511 H 0.0 **** 0.06
14875 H 106.82419652744571 22.111052241835637 72.92720324702992 H 0.0 **** 0.06
14876 C 80.12088139658798 56.0689931492841 45.17071125084806 C 0.0 **** -0.24
14877 H 79.31871498209699 55.69200681788908 44.53659451510325 H 0.0 **** 0.06
14878 H 80.68065345696988 56.83459069040748 44.63262909956117 H 0.0 **** 0.06
14879 H 80.78902100435866 55.24960762566985 45.436913364932366 H 0.0 **** 0.06
14880 H 79.69530976277267 56.49941579777595 46.077627937499614 H 0.0 **** 0.06
14881 C 72.22221808913878 105.98215004631591 64.14741136349738 C 0.0 **** -0.24
14882 H 71.7348552573025 106.95338448954892 64.0684887626328 H 0.0 **** 0.06
14883 H 72.14526456211314 105.45884381773118 63.1939007455627 H 0.0 **** 0.06
14884 H 71.7353398628282 105.39416228942578 64.92573823748592 H 0.0 **** 0.06
14885 H 73.27341267431133 106.12220958855775 64.40151770830812 H 0.0 **** 0.06
14886 C 57.361393758660114 91.353420401672 96.22018405223807 C 0.0 **** -0.24
14887 H 57.986856294616004 90.77906767575985 95.53685597211174 H 0.0 **** 0.06
14888 H 57.205582651877606 92.35346052809456 95.81567033737227 H 0.0 **** 0.06
14889 H 57.85374843727104 91.42539806675194 97.18998186271497 H 0.0 **** 0.06
14890 H 56.3987625151491 90.85447076008086 96.3372486335202 H 0.0 **** 0.06
14891 C 32.11388710488949 14.353652843173307 56.44399798405189 C 0.0 **** -0.24
14892 H 31.07656572966082 14.686921332734368 56.480070156609884 H 0.0 **** 0.06
14893 H 32.17272365627875 13.315399933539684 56.769933314217354 H 0.0 **** 0.06
14894 H 32.71920682288757 14.976998150933632 57.10163720045304 H 0.0 **** 0.06
14895 H 32.485725518518734 14.43541392486416 55.42255535864811 H 0.0 **** 0.06
14896 C 52.23478451240905 50.41671643352572 78.67002435050314 C 0.0 **** -0.24
14897 H 52.25081500183505 49.44606775108539 79.16492416355389 H 0.0 **** 0.06
14898 H 51.244823882130085 50.59260798825754 78.24762420001066 H 0.0 **** 0.06
14899 H 52.977740899930154 50.429384439219895 77.87275399616857 H 0.0 **** 0.06
14900 H 52.46567344546415 51.19807392809425 79.39411859536703 H 0.0 **** 0.06
14901 C 79.34901022212048 8.299250692066778 56.54579167794961 C 0.0 **** -0.24
14902 H 79.92764080001174 7.660731875886029 55.87762618271938 H 0.0 **** 0.06
14903 H 78.29570268007942 8.25414214729824 56.269530691662936 H 0.0 **** 0.06
14904 H 79.70307530184047 9.32642794130021 56.4637582955132 H 0.0 **** 0.06
14905 H 79.47045244597709 7.953648048198829 57.57256298863683 H 0.0 **** 0.06
14906 C 57.9815116208556 34.40950274399967 22.395060278046216 C 0.0 **** -0.24
14907 H 57.4950805417877 35.21988331728761 22.93876689397129 H 0.0 **** 0.06
14908 H 58.70367151763682 34.82715732205757 21.693186735727977 H 0.0 **** 0.06
14909 H 57.23165219708662 33.83763888334411 21.84899229268585 H 0.0 **** 0.06
14910 H 58.49545444196443 33.756256597372186 23.100482120827294 H 0.0 **** 0.06
14911 C 84.4552304905464 90.49753661131768 45.27751549676941 C 0.0 **** -0.24
14912 H 84.25913305929434 91.44409283326023 45.78132183932385 H 0.0 **** 0.06
14913 H 83.59800817193657 89.83484736631007 45.40291348075621 H 0.0 **** 0.06
14914 H 85.3406935303227 90.03245293330465 45.710947256688314 H 0.0 **** 0.06
14915 H 84.62188170018203 90.67904115784235 44.21556060111297 H 0.0 **** 0.06
14916 C 94.32054285866236 22.927781842546977 77.15160060398784 C 0.0 **** -0.24
14917 H 94.21892942087688 23.974858129092553 77.4395011870904 H 0.0 **** 0.06
14918 H 93.74528205561653 22.74370318111133 76.24443317526772 H 0.0 **** 0.06
14919 H 93.94684120681802 22.292973117069835 77.95511704670469 H 0.0 **** 0.06
14920 H 95.37146856025338 22.702708247929905 76.96776699320816 H 0.0 **** 0.06
14921 C 17.19439429976063 41.8545272310526 30.283426621417675 C 0.0 **** -0.24
14922 H 18.18399914632397 41.67419031506992 30.703177199209392 H 0.0 **** 0.06
14923 H 16.77507887595459 40.91509898071229 29.925115622837836 H 0.0 **** 0.06
14924 H 17.274774620275423 42.557358628906826 29.45436165404186 H 0.0 **** 0.06
14925 H 16.545511679827314 42.273136886740645 31.052783504546824 H 0.0 **** 0.06
14926 C 99.6530852439916 84.99361747679691 47.167325376056084 C 0.0 **** -0.24
14927 H 100.28146766905849 85.10256372600574 46.28427619038871 H 0.0 **** 0.06
14928 H 98.61346130911255 84.87670839381508 46.86130732261489 H 0.0 **** 0.06
14929 H 99.75083313504496 85.88008823457113 47.79384643903077 H 0.0 **** 0.06
14930 H 99.9677709358536 84.11491694857148 47.730607740057565 H 0.0 **** 0.06
14931 C 88.30048548096217 6.462122373584464 73.46165573570502 C 0.0 **** -0.24
14932 H 88.46724179924624 5.504633826113444 73.95559069455572 H 0.0 **** 0.06
14933 H 87.74489062791298 6.301689444235048 72.5370988678167 H 0.0 **** 0.06
14934 H 89.26025353177357 6.925397600366846 73.23392555513203 H 0.0 **** 0.06
14935 H 87.72849147920253 7.115885933230654 74.12030419516046 H 0.0 **** 0.06
14936 C 98.6108451259692 74.71236189124392 74.54427271736779 C 0.0 **** -0.24
14937 H 98.65703699597432 73.80594619152737 73.94114208088752 H 0.0 **** 0.06
14938 H 98.65339677751248 74.44828749890692 75.6011879489979 H 0.0 **** 0.06
14939 H 97.67729583367372 75.23802576666529 74.33805672102591 H 0.0 **** 0.06
14940 H 99.45259459526349 75.35797850397185 74.29651748609115 H 0.0 **** 0.06
14941 C 89.5808069004442 29.356222635994243 22.03819897923242 C 0.0 **** -0.24
14942 H 90.2315702656649 29.85277802974059 22.75851664124766 H 0.0 **** 0.06
14943 H 89.21441071804742 30.085921443246264 21.316500866505244 H 0.0 **** 0.06
14944 H 88.73722842659859 28.905628979561186 22.56058714201849 H 0.0 **** 0.06
14945 H 90.14237403515526 28.57993939479377 21.517441409425707 H 0.0 **** 0.06
14946 C 120.38229729687552 84.10788889616492 51.871658832337346 C 0.0 **** -0.24
14947 H 121.25127684531229 83.79559200831945 52.45163034422495 H 0.0 **** 0.06
14948 H 120.46601437059019 83.72175699779514 50.85510465767038 H 0.0 **** 0.06
14949 H 120.33696735360095 85.1969030616948 51.84434426746927 H 0.0 **** 0.06
14950 H 119.47649603106589 83.71801048668566 52.33533281919051 H 0.0 **** 0.06
14951 C 120.73356644428816 83.26621725264371 99.37651228295391 C 0.0 **** -0.24
14952 H 120.93080410574612 82.82147170947499 98.40118700070256 H 0.0 **** 0.06
14953 H 121.54609501162366 83.94463751976568 99.63705208433252 H 0.0 **** 0.06
14954 H 120.66146855287883 82.47909438017504 100.12717078893334 H 0.0 **** 0.06
14955 H 119.7947214899742 83.81941090647896 99.33989702317686 H 0.0 **** 0.06
14956 C 93.18909333192471 100.708585000094 42.90918328731294 C 0.0 **** -0.24
14957 H 94.03091498279005 100.02145131282471 42.82334439501295 H 0.0 **** 0.06
14958 H 92.60807287084143 100.46029327655776 43.79856074640969 H 0.0 **** 0.06
14959 H 92.55749678734847 100.62016251187934 42.02532528588432 H 0.0 **** 0.06
14960 H 93.55970422149493 101.72969255163234 42.99070976414498 H 0.0 **** 0.06
14961 C 119.96690325447452 88.67590556248928 52.69344192997656 C 0.0 **** -0.24
14962 H 119.50840780193612 88.86959398198422 51.7242668343869 H 0.0 **** 0.06
14963 H 119.42226625870822 87.8803460958041 53.200772514443784 H 0.0 **** 0.06
14964 H 119.9331666523433 89.5827886883414 53.2982862198518 H 0.0 **** 0.06
14965 H 121.00484964685512 88.37369331595787 52.550414637780236 H 0.0 **** 0.06
14966 C 104.79408220965479 53.58474969987621 17.22059797253749 C 0.0 **** -0.24
14967 H 103.92486932510323 53.69559061062691 17.868703633502946 H 0.0 **** 0.06
14968 H 105.4455597185127 52.805158994197384 17.616179979908736 H 0.0 **** 0.06
14969 H 105.33857482312436 54.52799684819176 17.178964952085607 H 0.0 **** 0.06
14970 H 104.46611890104907 53.31090001931747 16.21818833126173 H 0.0 **** 0.06
14971 C 93.65269218154876 118.28932955669445 8.739693607133223 C 0.0 **** -0.24
14972 H 94.58023514822544 118.81768331171514 8.51961395729511 H 0.0 **** 0.06
14973 H 93.75962008766535 117.23837793413364 8.470405962479223 H 0.0 **** 0.06
14974 H 92.83805688854386 118.73095055279823 8.166201747751408 H 0.0 **** 0.06
14975 H 93.43342883962318 118.37079001028653 9.804884930355506 H 0.0 **** 0.06
14976 C 13.313462962376605 79.22655496097384 18.440176761395435 C 0.0 **** -0.24
14977 H 13.842404626614154 80.17898219062855 18.4798984818175 H 0.0 **** 0.06
14978 H 13.031358300868419 78.92516373263366 19.449143070154136 H 0.0 **** 0.06
14979 H 13.963469469893255 78.4681914082735 18.00269188369873 H 0.0 **** 0.06
14980 H 12.417450691193153 79.33340209345727 17.828693801185892 H 0.0 **** 0.06
14981 C 22.95931125376827 98.89362054761547 59.02188161142537 C 0.0 **** -0.24
14982 H 23.02057555559052 98.44068602241654 58.0318761785436 H 0.0 **** 0.06
14983 H 23.357386786319772 99.908153180385 58.98186685229024 H 0.0 **** 0.06
14984 H 23.540273588620657 98.30240071398676 59.72882963839601 H 0.0 **** 0.06
14985 H 21.91794850033287 98.92460723489098 59.343218160226016 H 0.0 **** 0.06
14986 C 119.27614726127612 3.661665447085369 94.00382607996005 C 0.0 **** -0.24
14987 H 118.75712896631853 3.5248290328777756 93.05444492181988 H 0.0 **** 0.06
14988 H 118.80747176749566 3.04023418673259 94.76608660721854 H 0.0 **** 0.06
14989 H 119.2172087388721 4.709008989236594 94.30155332565855 H 0.0 **** 0.06
14990 H 120.32162345870168 3.3734489294045034 93.89040424667144 H 0.0 **** 0.06
14991 C 109.98146590279899 92.43929537962 4.718698393805937 C 0.0 **** -0.24
14992 H 110.14876928262701 93.12275849369931 3.8861916598991115 H 0.0 **** 0.06
14993 H 110.3130493989574 91.43912568383163 4.4395789270618025 H 0.0 **** 0.06
14994 H 108.91930172515364 92.41602442620288 4.961390388698106 H 0.0 **** 0.06
14995 H 110.5459159931064 92.78053741857147 5.587472107409582 H 0.0 **** 0.06
14996 C 38.481666224053406 45.82271030691902 106.19498074356648 C 0.0 **** -0.24
14997 H 37.75869555164264 45.54312626909501 105.429492787273 H 0.0 **** 0.06
14998 H 39.12614962479792 46.61563023950748 105.81355065506452 H 0.0 **** 0.06
14999 H 39.08816757084858 44.95548451763136 106.45666618441237 H 0.0 **** 0.06
15000 H 37.95431086690126 46.176833883298684 107.08092856569314 H 0.0 **** 0.06
15001 C 118.04461121231242 70.09327220226211 30.66746149348242 C 0.0 **** -0.24
15002 H 119.06608740406182 70.47268391622717 30.622218611428195 H 0.0 **** 0.06
15003 H 118.03393266601319 69.04419432084191 30.372959817285206 H 0.0 **** 0.06
15004 H 117.41401511724646 70.66865944941637 29.988701698478167 H 0.0 **** 0.06
15005 H 117.66555983185623 70.18984371804098 31.684409698376015 H 0.0 **** 0.06
15006 C 17.234404713459043 49.241862169174084 25.867929194786363 C 0.0 **** -0.24
15007 H 16.702638135240136 49.56562359209849 26.762403639261642 H 0.0 **** 0.06
15008 H 16.52132706399189 48.8391592132393 25.146885206098155 H 0.0 **** 0.06
15009 H 17.956203446201954 48.46936313509502 26.13394528607212 H 0.0 **** 0.06
15010 H 17.75623889015182 50.09117548588699 25.42706562868677 H 0.0 **** 0.06
15011 C 79.55901457520208 115.07742198955181 9.438092102570465 C 0.0 **** -0.24
15012 H 78.9432969640107 114.68533673093478 8.62845595369339 H 0.0 **** 0.06
15013 H 80.5915971866622 114.75975509711176 9.29484553462521 H 0.0 **** 0.06
15014 H 79.1905008409846 114.69790164920447 10.390390150104508 H 0.0 **** 0.06
15015 H 79.50951427738326 116.16633050016357 9.436793287826788 H 0.0 **** 0.06
15016 C 11.316006791449716 116.1319123399053 88.30771885711566 C 0.0 **** -0.24
15017 H 10.787683847155456 115.6132286189869 87.50842247035492 H 0.0 **** 0.06
15018 H 11.081989224655047 115.6612462924545 89.2631527968332 H 0.0 **** 0.06
15019 H 11.004868925040885 117.17661478302841 88.33127254043544 H 0.0 **** 0.06
15020 H 12.390119066439748 116.07712597898609 88.12915791719743 H 0.0 **** 0.06
15021 C 72.17862193847448 31.507308418263648 116.11179758893195 C 0.0 **** -0.24
15022 H 72.47933422688483 32.459484436778126 115.67463324846892 H 0.0 **** 0.06
15023 H 72.43072956545964 31.498743926891393 117.17234655842549 H 0.0 **** 0.06
15024 H 72.70261973648776 30.695541898273603 115.60763282291299 H 0.0 **** 0.06
15025 H 71.10389241264036 31.37638895945892 115.99169276566641 H 0.0 **** 0.06
15026 C 92.22704728690488 92.84117268185351 101.34780742179467 C 0.0 **** -0.24
15027 H 92.58140542975141 93.86990254457945 101.41337331193239 H 0.0 **** 0.06
15028 H 91.71652013056139 92.57342910389383 102.2736860235376 H 0.0 **** 0.06
15029 H 93.07502728723351 92.17437881352248 101.1942967787168 H 0.0 **** 0.06
15030 H 91.53477732755248 92.7488078803777 100.51143865750365 H 0.0 **** 0.06
15031 C 121.84628422093061 40.75216873009731 53.16375703206245 C 0.0 **** -0.24
15032 H 120.80539131992975 40.97760348172912 52.934345209226734 H 0.0 **** 0.06
15033 H 122.38241564655647 40.533462518262866 52.23928340240596 H 0.0 **** 0.06
15034 H 121.89353267439049 39.88709357524962 53.82492890647322 H 0.0 **** 0.06
15035 H 122.30393042400527 41.61127419801048 53.65437140238146 H 0.0 **** 0.06
15036 C 98.62881607598646 29.610631472369107 48.44248840173822 C 0.0 **** -0.24
15037 H 99.41550142644431 30.02743050956093 49.07024580111778 H 0.0 **** 0.06
15038 H 98.79095413692121 29.915303739539922 47.40780059802421 H 0.0 **** 0.06
15039 H 97.6597829279938 29.97615312663794 48.78179116761447 H 0.0 **** 0.06
15040 H 98.65073982132773 28.522556241764732 48.50874083724614 H 0.0 **** 0.06
15041 C 123.0632635720683 31.001931076418316 97.3301932845691 C 0.0 **** -0.24
15042 H 123.61447671887498 31.70705792660243 97.95246806933663 H 0.0 **** 0.06
15043 H 122.3113368215107 31.53888614857115 96.75247788281723 H 0.0 **** 0.06
15044 H 122.57431838720164 30.26264795398035 97.96552063291263 H 0.0 **** 0.06
15045 H 123.75363211773538 30.49889360604041 96.65241357704744 H 0.0 **** 0.06
15046 C 2.8220643266814704 80.76671169507429 81.13652829229841 C 0.0 **** -0.24
15047 H 2.5118252810532624 80.86439853342526 82.17698719888276 H 0.0 **** 0.06
15048 H 3.8966140957951723 80.93683003812622 81.06076341679585 H 0.0 **** 0.06
15049 H 2.2948362229802797 81.50167851009415 80.52882854794913 H 0.0 **** 0.06
15050 H 2.586665923332447 79.76430295916091 80.77971181915683 H 0.0 **** 0.06
15051 C 106.55079914805796 46.06096129135007 61.12860575300516 C 0.0 **** -0.24
15052 H 106.11326470309778 45.12524568706292 61.47711492582164 H 0.0 **** 0.06
15053 H 105.78489023641926 46.656949855916295 60.63164910134401 H 0.0 **** 0.06
15054 H 107.35592053739111 45.84579410448858 60.42565385775805 H 0.0 **** 0.06
15055 H 106.94838112228075 46.61504124461724 61.97911660218949 H 0.0 **** 0.06
15056 C 49.70134013225146 106.68298935231002 35.14695756246133 C 0.0 **** -0.24
15057 H 48.9401179640422 107.32994248875028 35.58403216399955 H 0.0 **** 0.06
15058 H 50.68989465468697 107.02911763995266 35.45018176880085 H 0.0 **** 0.06
15059 H 49.62234798220814 106.71259629312905 34.059900335688404 H 0.0 **** 0.06
15060 H 49.55202253832459 105.6604632254791 35.49472518665955 H 0.0 **** 0.06
15061 C 34.4904012067602 97.11745595826687 39.8163740221986 C 0.0 **** -0.24
15062 H 33.863402176738674 97.984990504873 39.61137471496445 H 0.0 **** 0.06
15063 H 35.22934488972831 97.37421484799773 40.57567161477981 H 0.0 **** 0.06
15064 H 34.99910971451865 96.81278596429789 38.9020428297127 H 0.0 **** 0.06
15065 H 33.86919159178291 96.29709150394405 40.176782846281945 H 0.0 **** 0.06
15066 C 3.9823277381024553 87.05618270715642 121.06878985684621 C 0.0 **** -0.24
15067 H 3.268163702708648 86.36865684282215 121.52233328444123 H 0.0 **** 0.06
15068 H 4.050953077629572 86.85426655278484 120.00013364250754 H 0.0 **** 0.06
15069 H 4.961419426875793 86.91732601149815 121.52842236986079 H 0.0 **** 0.06
15070 H 3.6487476299577395 88.08199471326012 121.22594823349392 H 0.0 **** 0.06
15071 C 123.72587072403752 48.40997820243865 86.99350202804646 C 0.0 **** -0.24
15072 H 124.68606825810093 47.98217782379055 86.70630835662593 H 0.0 **** 0.06
15073 H 123.76207487582076 49.4937067880272 86.88043857742963 H 0.0 **** 0.06
15074 H 123.5132105730433 48.16004764468923 88.03383091060823 H 0.0 **** 0.06
15075 H 122.94078174550123 48.002886297505654 86.35515865452516 H 0.0 **** 0.06
15076 C 20.00181399789855 22.506661670519733 104.18529050273551 C 0.0 **** -0.24
15077 H 20.668772248717232 23.212191573385354 104.68177213217388 H 0.0 **** 0.06
15078 H 20.588872859531364 21.81636126369166 103.58018976291515 H 0.0 **** 0.06
15079 H 19.308213602598244 23.05220536656676 103.54553252633923 H 0.0 **** 0.06
15080 H 19.441237627784204 21.94823993569267 104.9355238336546 H 0.0 **** 0.06
15081 C 18.50344608271347 123.87026100259509 119.01260419313253 C 0.0 **** -0.24
15082 H 18.904826420711412 123.59976395852851 119.9896502119646 H 0.0 **** 0.06
15083 H 19.23014773106064 123.61848460831871 118.24012501901498 H 0.0 **** 0.06
15084 H 18.301381724102043 124.94069158359433 118.98637382132945 H 0.0 **** 0.06
15085 H 17.57924613136931 123.3214033772482 118.83575287956819 H 0.0 **** 0.06
15086 C 41.80341377635011 49.74000433294222 55.53886177833198 C 0.0 **** -0.24
15087 H 41.60922593899767 50.4360173414228 56.35470898461581 H 0.0 **** 0.06
15088 H 40.969667758657465 49.04208865050137 55.45044182032866 H 0.0 **** 0.06
15089 H 42.72060683947052 49.18798530211153 55.74277487731604 H 0.0 **** 0.06
15090 H 41.91295183895335 50.294447143760905 54.60699039628996 H 0.0 **** 0.06
15091 C 61.86180093950324 95.52340126111373 111.18197501241946 C 0.0 **** -0.24
15092 H 62.07045949507946 95.38745073876306 110.12029152465718 H 0.0 **** 0.06
15093 H 60.78539772533118 95.60264780621314 111.33285506573895 H 0.0 **** 0.06
15094 H 62.34683486156217 96.43515718421621 111.53250034547035 H 0.0 **** 0.06
15095 H 62.24567211454966 94.67014146285105 111.7401454914309 H 0.0 **** 0.06
15096 C 44.31289428613201 94.27426702404983 49.88157076137824 C 0.0 **** -0.24
15097 H 44.99695882543301 95.11132266448476 49.74376930718043 H 0.0 **** 0.06
15098 H 44.32149249875448 93.96718704374496 50.927611242773565 H 0.0 **** 0.06
15099 H 44.62838555510473 93.43988596062616 49.25532384758233 H 0.0 **** 0.06
15100 H 43.30478507370515 94.57883395203942 49.60056452606116 H 0.0 **** 0.06
15101 C 63.231733192029424 53.02456111267189 69.04929450675155 C 0.0 **** -0.24
15102 H 62.54505117481216 53.140614554977816 68.21107908921977 H 0.0 **** 0.06
15103 H 63.148165154102855 53.88817344637444 69.70939817361187 H 0.0 **** 0.06
15104 H 64.25285825512287 52.948614771503344 68.6762081333705 H 0.0 **** 0.06
15105 H 62.978979664778706 52.119576436721346 69.60246006893027 H 0.0 **** 0.06
15106 C 7.136174312968574 98.31049217644846 69.95822223783838 C 0.0 **** -0.24
15107 H 7.607932413198199 97.44648143557265 70.42535540694664 H 0.0 **** 0.06
15108 H 6.819652197870884 98.04839923365415 68.94752452355628 H 0.0 **** 0.06
15109 H 7.848743715743463 99.1339390611825 69.9146015895891 H 0.0 **** 0.06
15110 H 6.267961929554339 98.61136032174085 70.54412862677381 H 0.0 **** 0.06
15111 C 70.21936944959236 63.803108523563736 52.0274003262748 C 0.0 **** -0.24
15112 H 71.02786547094422 63.464134396559245 52.67546163193208 H 0.0 **** 0.06
15113 H 69.67442275005226 62.940458393496925 51.64541014535894 H 0.0 **** 0.06
15114 H 70.6350520227254 64.36945718284582 51.19385973701969 H 0.0 **** 0.06
15115 H 69.54100050493935 64.43980840529903 52.5966661910162 H 0.0 **** 0.06
15116 C 112.21795016188743 108.11308474776013 81.7723866114437 C 0.0 **** -0.24
15117 H 111.2931235197915 107.55830757445938 81.93015438433784 H 0.0 **** 0.06
15118 H 113.0377269670553 107.4140055816068 81.60945112464293 H 0.0 **** 0.06
15119 H 112.42932210240426 108.72343426628518 82.6509702041046 H 0.0 **** 0.06
15120 H 112.11048961433178 108.75824374908177 80.89995790714283 H 0.0 **** 0.06
15121 C 18.257441635168988 94.73203587756683 26.159544832618664 C 0.0 **** -0.24
15122 H 18.696436643285367 93.79532939101897 25.816878787238906 H 0.0 **** 0.06
15123 H 19.040444454705487 95.3753656588633 26.56144171593587 H 0.0 **** 0.06
15124 H 17.522299355359387 94.52502955820955 26.937939961896546 H 0.0 **** 0.06
15125 H 17.768781627434358 95.23163495877284 25.32298170375455 H 0.0 **** 0.06
15126 C 58.12678164248405 60.07876323320045 44.62069733732554 C 0.0 **** -0.24
15127 H 58.597652484212205 60.04145917259922 43.638832929951434 H 0.0 **** 0.06
15128 H 58.82601142268331 60.5043277372269 45.342224474672804 H 0.0 **** 0.06
15129 H 57.85369422176049 59.07068745428211 44.93113596481123 H 0.0 **** 0.06
15130 H 57.2324029470787 60.69992428156564 44.57171355416003 H 0.0 **** 0.06
15131 C 25.182107396247886 53.879385774472155 16.34929665412571 C 0.0 **** -0.24
15132 H 24.80548817846801 53.574662694603376 17.32593606506316 H 0.0 **** 0.06
15133 H 26.175919968667188 53.45672624430182 16.19653775272448 H 0.0 **** 0.06
15134 H 25.23966909798463 54.967281362393294 16.30530139406936 H 0.0 **** 0.06
15135 H 24.50946244364968 53.51802825594024 15.571610210998003 H 0.0 **** 0.06
15136 C 117.99518743374935 110.20398574034354 53.33596479569769 C 0.0 **** -0.24
15137 H 117.96925056681583 111.24959028620215 53.02865365739261 H 0.0 **** 0.06
15138 H 116.98889930658173 109.78636331134553 53.2868069809881 H 0.0 **** 0.06
15139 H 118.36797646230255 110.13522781854977 54.358425773103434 H 0.0 **** 0.06
15140 H 118.65334393994443 109.64584703813604 52.67040271303166 H 0.0 **** 0.06
15141 C 60.421219443670736 95.69475052175022 38.82307965073883 C 0.0 **** -0.24
15142 H 60.82324149982938 96.21844252151021 39.690650793105675 H 0.0 **** 0.06
15143 H 60.19258748581376 96.4162595517376 38.03800327673221 H 0.0 **** 0.06
15144 H 59.51143706819863 95.16625325953731 39.10726860673984 H 0.0 **** 0.06
15145 H 61.157491456172835 94.97997208079187 38.45692400637063 H 0.0 **** 0.06
15146 C 75.64508353266427 29.91989458713047 8.915022925918095 C 0.0 **** -0.24
15147 H 76.00061940684478 30.221441163155617 9.90097509683011 H 0.0 **** 0.06
15148 H 74.56213785843732 29.79511443170432 8.942795947453988 H 0.0 **** 0.06
15149 H 76.1130283130561 28.97688163314095 8.633317527613144 H 0.0 **** 0.06
15150 H 75.90514435519145 30.68646642116542 8.18609177786442 H 0.0 **** 0.06
15151 C 48.739472806691126 108.87367115446347 58.29146036642055 C 0.0 **** -0.24
15152 H 49.38463819640549 109.37791102054535 59.00987626603384 H 0.0 **** 0.06
15153 H 48.24623797911738 108.03052361706153 58.77638346121344 H 0.0 **** 0.06
15154 H 49.33910725866001 108.513110600845 57.45527118061253 H 0.0 **** 0.06
15155 H 47.98790779258198 109.5731393794024 57.92431055782208 H 0.0 **** 0.06
15156 C 52.62762626854368 120.24026117138823 102.10766814027032 C 0.0 **** -0.24
15157 H 53.40841425688549 120.45131627164602 101.37759792492025 H 0.0 **** 0.06
15158 H 52.55425624633369 121.06963038000933 102.81230233672717 H 0.0 **** 0.06
15159 H 52.871974920137944 119.32569297176748 102.64702645833692 H 0.0 **** 0.06
15160 H 51.674193386231934 120.11532697651394 101.59313440778539 H 0.0 **** 0.06
15161 C 116.70721264675487 1.003240534573564 33.1076675140698 C 0.0 **** -0.24
15162 H 117.1305905606644 1.702663969369354 33.827794343278185 H 0.0 **** 0.06
15163 H 116.47695849744295 0.062341405777345926 33.60812690192782 H 0.0 **** 0.06
15164 H 117.42682186750474 0.8237760757301373 32.30850932167988 H 0.0 **** 0.06
15165 H 115.79355583586992 1.4241818529928594 32.685856607372386 H 0.0 **** 0.06
15166 C 41.84953791448774 50.93163592164876 94.44644082258253 C 0.0 **** -0.24
15167 H 41.36072921427197 51.50629952709505 95.23276230169859 H 0.0 **** 0.06
15168 H 42.707581523857954 50.40397074595137 94.86224522960364 H 0.0 **** 0.06
15169 H 42.184230522187704 51.605649890494874 93.65856222807912 H 0.0 **** 0.06
15170 H 41.1442168378411 50.21065685067515 94.03243225175322 H 0.0 **** 0.06
15171 C 110.54718569743025 82.42908043961972 81.95689582153844 C 0.0 **** -0.24
15172 H 111.02116818951265 82.35906415822672 82.93637837367004 H 0.0 **** 0.06
15173 H 110.7450776141269 83.41194302338948 81.52807337621687 H 0.0 **** 0.06
15174 H 109.47177831920301 82.28720993691502 82.0628270484215 H 0.0 **** 0.06
15175 H 110.95244215768174 81.65810858098541 81.30172920958569 H 0.0 **** 0.06
15176 C 82.73729161410085 120.7883785060882 45.726030480351255 C 0.0 **** -0.24
15177 H 82.93277867677875 121.37033674390048 44.82517414189107 H 0.0 **** 0.06
15178 H 82.40004638154971 119.7901456878522 45.44653340962975 H 0.0 **** 0.06
15179 H 81.96472665204158 121.28100241902091 46.31572084165691 H 0.0 **** 0.06
15180 H 83.65134937807602 120.71329398106977 46.31486866933457 H 0.0 **** 0.06
15181 C 116.0123841186238 5.582338606468504 75.7883364645237 C 0.0 **** -0.24
15182 H 114.98881135220302 5.943964557961003 75.68655135077353 H 0.0 **** 0.06
15183 H 116.69300431763514 6.431318438371996 75.84147805655459 H 0.0 **** 0.06
15184 H 116.26602110232835 4.965505693533078 74.92695787494691 H 0.0 **** 0.06
15185 H 116.09870512512202 4.988435940341425 76.69823152050768 H 0.0 **** 0.06
15186 C 69.69340243782526 4.039072946749769 21.39708634802693 C 0.0 **** -0.24
15187 H 70.35520915384578 4.63528863347284 20.76898729096348 H 0.0 **** 0.06
15188 H 69.84665531049043 4.305578902831172 22.442504351681862 H 0.0 **** 0.06
15189 H 69.91383249410526 2.981171428347835 21.255239028620366 H 0.0 **** 0.06
15190 H 68.65709917743882 4.234115353021309 21.120466139378266 H 0.0 **** 0.06
15191 C 118.10465309326526 41.2116047197793 59.87603142550529 C 0.0 **** -0.24
15192 H 118.53484674505142 41.31981911472184 58.88055126233277 H 0.0 **** 0.06
15193 H 117.0512367838241 41.49184220641877 59.84918404111454 H 0.0 **** 0.06
15194 H 118.63606023595983 41.85953849568568 60.573889604223126 H 0.0 **** 0.06
15195 H 118.19703244726918 40.1753679955749 60.20131317236229 H 0.0 **** 0.06
15196 C 32.71372426496361 111.54929981015877 89.72205278988702 C 0.0 **** -0.24
15197 H 32.378006943219816 112.56459207189533 89.9337228688717 H 0.0 **** 0.06
15198 H 31.958387530900737 110.8388366539603 90.05874591201102 H 0.0 **** 0.06
15199 H 33.65059990343566 111.36103395775632 90.24827785641983 H 0.0 **** 0.06
15200 H 32.87031230702525 111.43374228076198 88.64974111441845 H 0.0 **** 0.06
15201 C 98.98138651985563 10.48108570153704 50.841330855087335 C 0.0 **** -0.24
15202 H 98.55304094482617 9.667429940642421 50.255466439841314 H 0.0 **** 0.06
15203 H 100.04494923915972 10.566123341898134 50.62008075118581 H 0.0 **** 0.06
15204 H 98.84585153827547 10.273432365901186 51.90251888819523 H 0.0 **** 0.06
15205 H 98.48046015301738 11.414887243360482 50.58666412264898 H 0.0 **** 0.06
15206 C 19.242136155019125 19.61347139696073 67.67712408180908 C 0.0 **** -0.24
15207 H 18.72109173141959 19.03910239599541 66.90979835070901 H 0.0 **** 0.06
15208 H 18.955464673905595 19.24435806893972 68.66252176368532 H 0.0 **** 0.06
15209 H 18.970986658230686 20.66571319192864 67.58892042832788 H 0.0 **** 0.06
15210 H 20.31822490012749 19.5025652466181 67.54509179811582 H 0.0 **** 0.06
15211 C 5.158716182692494 67.8943572855245 7.757685034078833 C 0.0 **** -0.24
15212 H 6.203111846305578 68.19378696553258 7.667146096314909 H 0.0 **** 0.06
15213 H 5.07483298955129 67.08239440578816 8.480834853467826 H 0.0 **** 0.06
15214 H 4.792499621092478 67.55713917168512 6.788567382442622 H 0.0 **** 0.06
15215 H 4.565708318316542 68.74390152144986 8.095331199147807 H 0.0 **** 0.06
15216 C 51.06262816732712 118.10943872917241 72.51282394611162 C 0.0 **** -0.24
15217 H 51.81208517235149 118.8837241043997 72.67628052353537 H 0.0 **** 0.06
15218 H 51.49558440917457 117.30588020050648 71.91484448828828 H 0.0 **** 0.06
15219 H 50.2094541197888 118.53531768461889 71.98404241358325 H 0.0 **** 0.06
15220 H 50.73483235857017 117.7122067499413 73.47273346928294 H 0.0 **** 0.06
15221 C 110.50584999976118 23.73534305781321 116.08185071052083 C 0.0 **** -0.24
15222 H 111.02929405840054 22.799464670118056 116.27751028798139 H 0.0 **** 0.06
15223 H 109.49902266063081 23.68234972123966 116.49541702046798 H 0.0 **** 0.06
15224 H 110.44994635098055 23.902492407633332 115.00647098597054 H 0.0 **** 0.06
15225 H 111.04791305706203 24.558099649154116 116.54949588881985 H 0.0 **** 0.06
15226 C 80.50662692945184 83.39952668494965 75.44080729396066 C 0.0 **** -0.24
15227 H 79.57987277371392 83.21375586296807 74.89708522095987 H 0.0 **** 0.06
15228 H 80.73881405842154 84.46406505036396 75.41092569887553 H 0.0 **** 0.06
15229 H 81.31797208375525 82.83655507001339 74.9776228844741 H 0.0 **** 0.06
15230 H 80.3888191247914 83.08068383207262 76.47630825835859 H 0.0 **** 0.06
15231 C 80.8241426903819 113.50072190915188 93.22952363078159 C 0.0 **** -0.24
15232 H 81.4652012977242 113.57897303974843 94.10812159256179 H 0.0 **** 0.06
15233 H 81.01894987526592 112.55502197438275 92.72187059628268 H 0.0 **** 0.06
15234 H 81.03434490846824 114.32743560812955 92.55165333097685 H 0.0 **** 0.06
15235 H 79.77946306817404 113.53880341492108 93.5381901041188 H 0.0 **** 0.06
15236 C 10.977195844436238 19.02653642739624 25.061650003212975 C 0.0 **** -0.24
15237 H 11.578191552842412 19.935357824009053 25.037103802777708 H 0.0 **** 0.06
15238 H 9.920037820878548 19.290330746858483 25.094271842613864 H 0.0 **** 0.06
15239 H 11.235715830003244 18.444626499285707 25.946691242028493 H 0.0 **** 0.06
15240 H 11.178345643993225 18.43516451600768 24.167412998335976 H 0.0 **** 0.06
15241 C 17.966127362254994 109.15619282614391 4.422736794902249 C 0.0 **** -0.24
15242 H 17.608160137040215 108.17559211967496 4.108654892642647 H 0.0 **** 0.06
15243 H 19.023465969714522 109.25213544932909 4.178702544619938 H 0.0 **** 0.06
15244 H 17.830458122136108 109.26451635040692 5.498654337717426 H 0.0 **** 0.06
15245 H 17.400669995207124 109.93161311822054 3.9052243958428505 H 0.0 **** 0.06
15246 C 15.635954585877641 6.606670229213876 82.17717956901143 C 0.0 **** -0.24
15247 H 16.283792391242116 6.929835607825083 82.99220781334829 H 0.0 **** 0.06
15248 H 15.69334770952355 5.5225053668972635 82.075506867321 H 0.0 **** 0.06
15249 H 15.959159781094684 7.075992515991089 81.24771911916486 H 0.0 **** 0.06
15250 H 14.607645460837205 6.897355601326609 82.39327004132711 H 0.0 **** 0.06
15251 C 114.15526037983138 107.60936459828713 21.491691732191015 C 0.0 **** -0.24
15252 H 114.52590158659189 106.89792384047934 22.2299321222595 H 0.0 **** 0.06
15253 H 114.73899455848601 108.5280261288064 21.548437634917576 H 0.0 **** 0.06
15254 H 113.10777368973493 107.83076312724455 21.695375341459453 H 0.0 **** 0.06
15255 H 114.24902642408003 107.17887821907678 20.494466011312397 H 0.0 **** 0.06
15256 C 115.81116726108826 13.921754840128742 10.031251587295912 C 0.0 **** -0.24
15257 H 116.83152436135623 13.887714722171523 10.412907659071664 H 0.0 **** 0.06
15258 H 115.82956111443207 13.882542562844847 8.941403041262959 H 0.0 **** 0.06
15259 H 115.333399092624 14.846979795358607 10.354093792486708 H 0.0 **** 0.06
15260 H 115.25067547027948 13.070127875572965 10.415802142676284 H 0.0 **** 0.06
15261 C 47.95287860777479 66.82116430467096 65.52758909072384 C 0.0 **** -0.24
15262 H 48.89253030342297 67.13932251988089 65.07554620556161 H 0.0 **** 0.06
15263 H 47.16819784910689 67.53469124148177 65.27302042128909 H 0.0 **** 0.06
15264 H 48.067987399082014 66.77768674145449 66.61124653068656 H 0.0 **** 0.06
15265 H 47.684289297899426 65.8346185886108 65.1506739725485 H 0.0 **** 0.06
15266 C 63.39284365589822 35.571717912592106 74.38116118699448 C 0.0 **** -0.24
15267 H 62.42075830480249 36.04796920028815 74.50381280273581 H 0.0 **** 0.06
15268 H 63.89578403176071 35.52009098335972 75.34756660057285 H 0.0 **** 0.06
15269 H 63.99784122485292 36.154272634583634 73.68680924950101 H 0.0 **** 0.06
15270 H 63.256792349153926 34.56443612170344 73.9884436006893 H 0.0 **** 0.06
15271 C 75.89098618244239 76.86906904864588 108.63161112482743 C 0.0 **** -0.24
15272 H 75.02605356538096 76.58530110181971 109.23181031560843 H 0.0 **** 0.06
15273 H 76.4847535853647 77.60439141549406 109.1761045430364 H 0.0 **** 0.06
15274 H 75.55314930234269 77.30069720334498 107.68932873725504 H 0.0 **** 0.06
15275 H 76.49929497267954 75.98708546151568 108.43122131922355 H 0.0 **** 0.06
15276 C 6.649656876449399 91.16516406642694 45.27819843274693 C 0.0 **** -0.24
15277 H 6.9382032551988 91.58452510102603 44.31418855986493 H 0.0 **** 0.06
15278 H 5.716523148251326 90.61038945712261 45.16740389640648 H 0.0 **** 0.06
15279 H 6.5105485780626395 91.97091807730243 45.998144263032145 H 0.0 **** 0.06
15280 H 7.431782504483351 90.49389956209694 45.63141949600447 H 0.0 **** 0.06
15281 C 45.99664715386001 49.82644496341061 25.011848168280096 C 0.0 **** -0.24
15282 H 46.85249334316856 50.50056658781284 25.005292153256903 H 0.0 **** 0.06
15283 H 46.3222513664967 48.82205230636413 24.739668012371112 H 0.0 **** 0.06
15284 H 45.25380633491277 50.175395588878416 24.29447679233408 H 0.0 **** 0.06
15285 H 45.55745113281674 49.80879831672678 26.009850281285253 H 0.0 **** 0.06
15286 C 1.7838003043820567 3.341653199003048 86.04267362898153 C 0.0 **** -0.24
15287 H 1.7705290301691026 3.677593223342342 87.0797439757838 H 0.0 **** 0.06
15288 H 2.7953002877408917 3.4262575386838137 85.64606857514491 H 0.0 **** 0.06
15289 H 1.1074294932765447 3.9602806931068244 85.45161412861748 H 0.0 **** 0.06
15290 H 1.4596357037954704 2.3010098608349097 85.99398498269215 H 0.0 **** 0.06
15291 C 45.96019616867835 16.14317440260629 5.606691158844171 C 0.0 **** -0.24
15292 H 46.13015773529236 16.46512829414047 4.579654438913224 H 0.0 **** 0.06
15293 H 46.883038284158204 16.247421680440766 6.177829210691755 H 0.0 **** 0.06
15294 H 45.64410647748747 15.099876308355874 5.612617176138542 H 0.0 **** 0.06
15295 H 45.18160876043788 16.760927634644133 6.05641930423252 H 0.0 **** 0.06
15296 C 43.20047160669705 89.06068759611657 57.18922931868903 C 0.0 **** -0.24
15297 H 43.622079977813684 89.70036309724179 56.41359643810284 H 0.0 **** 0.06
15298 H 43.579875679162484 89.37274336171492 58.16231023101446 H 0.0 **** 0.06
15299 H 43.48680078197327 88.02599683621844 57.00119918200332 H 0.0 **** 0.06
15300 H 42.11440114058237 89.14481837847217 57.17716325660987 H 0.0 **** 0.06
15301 C 35.04187787798588 12.48040333562426 88.18870847708676 C 0.0 **** -0.24
15302 H 35.53272245012306 13.398509374536843 87.86637387561628 H 0.0 **** 0.06
15303 H 34.92963551889062 11.810735658638976 87.3347314974642 H 0.0 **** 0.06
15304 H 34.060173633322336 12.717399310096368 88.59699062321212 H 0.0 **** 0.06
15305 H 35.646698463921894 11.994122460553399 88.95403041631 H 0.0 **** 0.06
15306 C 16.11920710310819 100.79066969625063 32.193874755134324 C 0.0 **** -0.24
15307 H 16.447770644483253 101.82429528424919 32.08454561827037 H 0.0 **** 0.06
15308 H 16.962187131733234 100.17235471429493 32.50243425245172 H 0.0 **** 0.06
15309 H 15.732063704019229 100.42965967505958 31.241666061492204 H 0.0 **** 0.06
15310 H 15.334361094653776 100.73746886723379 32.948748354559825 H 0.0 **** 0.06
15311 C 83.33554340965742 50.571941540495125 88.64282800653856 C 0.0 **** -0.24
15312 H 84.22136009524411 51.17272737239246 88.84926176738608 H 0.0 **** 0.06
15313 H 82.59388622062602 51.18341608450917 88.12799866444263 H 0.0 **** 0.06
15314 H 82.91779873739551 50.20575221918556 89.58029237468878 H 0.0 **** 0.06
15315 H 83.60961812383954 49.72578133430682 88.01289177644011 H 0.0 **** 0.06
15316 C 13.435963102615986 120.04090944351282 108.17319922721168 C 0.0 **** -0.24
15317 H 13.720211295927385 119.3250843169215 107.40150557518149 H 0.0 **** 0.06
15318 H 12.387871003317017 119.89472167823345 108.43610385469628 H 0.0 **** 0.06
15319 H 13.579402543594483 121.05454080021023 107.79788422817114 H 0.0 **** 0.06
15320 H 14.056739671859148 119.8900057227903 109.05614101736535 H 0.0 **** 0.06
15321 C 44.385879405634114 113.01893790861055 118.9402641579758 C 0.0 **** -0.24
15322 H 43.53019497040994 112.52861978977819 118.47525874278773 H 0.0 **** 0.06
15323 H 45.039060710821346 113.42069642617335 118.16567460208819 H 0.0 **** 0.06
15324 H 44.936520262193156 112.29455322593427 119.54023847010589 H 0.0 **** 0.06
15325 H 44.036953799417546 113.82985991023818 119.57934640450353 H 0.0 **** 0.06
15326 C 110.74958343512796 94.22470279076333 16.12324377632821 C 0.0 **** -0.24
15327 H 110.27287877418705 93.31017777663304 16.47559069773485 H 0.0 **** 0.06
15328 H 110.38160441047256 95.07236695923498 16.701961879093364 H 0.0 **** 0.06
15329 H 110.51298641957212 94.37379066358598 15.069147750834713 H 0.0 **** 0.06
15330 H 111.82934812375156 94.14140031859513 16.244679332320274 H 0.0 **** 0.06
15331 C 110.35720039903332 95.20586111806153 56.418479861010866 C 0.0 **** -0.24
15332 H 110.35665375913577 95.26648198705499 57.506814607732 H 0.0 **** 0.06
15333 H 111.10526826080765 95.88898624329661 56.01665499309223 H 0.0 **** 0.06
15334 H 109.3726423578499 95.48037287077864 56.039969013407585 H 0.0 **** 0.06
15335 H 110.59287926597612 94.18660765148245 56.110886623676095 H 0.0 **** 0.06
15336 C 48.15610187207483 91.13572573155696 13.738284805850753 C 0.0 **** -0.24
15337 H 49.122534940555525 90.94421159365564 13.272262110548866 H 0.0 **** 0.06
15338 H 48.27776813881411 91.86457463990322 14.540182771275227 H 0.0 **** 0.06
15339 H 47.760446867594595 90.20633229075705 14.148052622119224 H 0.0 **** 0.06
15340 H 47.46365754133498 91.52778440191176 12.992641719459584 H 0.0 **** 0.06
15341 C 17.11165897606483 42.129432744457944 61.01778196005627 C 0.0 **** -0.24
15342 H 17.916140131663695 42.66093127456335 61.52699423090475 H 0.0 **** 0.06
15343 H 17.26129756541846 41.05490608943262 61.12445192791361 H 0.0 **** 0.06
15344 H 17.114037007680906 42.39346475363692 59.96020541215118 H 0.0 **** 0.06
15345 H 16.155122941549365 42.40812433260717 61.46042803230327 H 0.0 **** 0.06
15346 C 30.58371577464402 71.90660116066584 44.164941636804215 C 0.0 **** -0.24
15347 H 30.44496832056788 71.71672360745526 43.10067035599721 H 0.0 **** 0.06
15348 H 29.61511981110784 72.08708274642453 44.63110572964135 H 0.0 **** 0.06
15349 H 31.220112112001416 72.78181489193952 44.297445817163265 H 0.0 **** 0.06
15350 H 31.05676121809381 71.04112453279973 44.6298512712975 H 0.0 **** 0.06
15351 C 98.17396650601732 42.22334937257213 48.181595272735535 C 0.0 **** -0.24
15352 H 97.74296472141474 42.17226572949423 49.18145157700849 H 0.0 **** 0.06
15353 H 98.50782981226756 41.23022812129682 47.878934988947094 H 0.0 **** 0.06
15354 H 99.02236950954074 42.90686950858884 48.18630863053244 H 0.0 **** 0.06
15355 H 97.42081513054075 42.58300385531692 47.48030119620785 H 0.0 **** 0.06
15356 C 1.7846889466120714 33.47256729873362 5.99455737221794 C 0.0 **** -0.24
15357 H 2.2837409507872817 34.186896734343065 6.650247331789785 H 0.0 **** 0.06
15358 H 0.8296528811637511 33.183855042976745 6.433740780801003 H 0.0 **** 0.06
15359 H 2.412337871447745 32.589332450632014 5.875298216232203 H 0.0 **** 0.06
15360 H 1.6134926344480842 33.931971636291394 5.02151002751836 H 0.0 **** 0.06
15361 C 53.42830011260679 101.40659388055249 1.1582509846094897 C 0.0 **** -0.24
15362 H 54.21828849720805 101.27185421961228 1.897662459582829 H 0.0 **** 0.06
15363 H 53.312714137044594 102.46922936033195 0.9411046918481727 H 0.0 **** 0.06
15364 H 52.49154318534286 101.01191670308043 1.552230823419988 H 0.0 **** 0.06
15365 H 53.691544799452885 100.87431410570416 0.24471273511408675 H 0.0 **** 0.06
15366 C 123.11586898592667 44.48674348400232 73.38567272113606 C 0.0 **** -0.24
15367 H 123.99383225208732 44.951663294902346 73.8336557073933 H 0.0 **** 0.06
15368 H 122.24937011123596 45.13342017871224 73.52913609505998 H 0.0 **** 0.06
15369 H 122.93363758217056 43.52246978734928 73.86018896490656 H 0.0 **** 0.06
15370 H 123.28785063248698 44.339648138877465 72.31902234466929 H 0.0 **** 0.06
15371 C 73.64607683205226 78.88244595074727 10.627471629899958 C 0.0 **** -0.24
15372 H 74.3634917234634 79.57111283444777 10.18222624250447 H 0.0 **** 0.06
15373 H 73.89923912379332 78.7206923856927 11.67493967715859 H 0.0 **** 0.06
15374 H 73.67665510818748 77.93150480072096 10.094392203606162 H 0.0 **** 0.06
15375 H 72.64427439024296 79.30592487660145 10.556259487328816 H 0.0 **** 0.06
15376 C 3.7241737051658603 104.79327373953673 104.11753550073904 C 0.0 **** -0.24
15377 H 3.666786336320614 105.80058003825017 103.70387323544897 H 0.0 **** 0.06
15378 H 4.331041830157094 104.80636305823441 105.02369417067615 H 0.0 **** 0.06
15379 H 4.178205725335953 104.12636569267143 103.38542811525383 H 0.0 **** 0.06
15380 H 2.720247388442207 104.44208063854155 104.35789795716093 H 0.0 **** 0.06
15381 C 19.112324357566926 22.734135061729695 95.08750339884119 C 0.0 **** -0.24
15382 H 19.718798089487613 22.785274250034988 95.99099829606538 H 0.0 **** 0.06
15383 H 19.436798991554152 21.88974658730728 94.47866181894466 H 0.0 **** 0.06
15384 H 19.228223639525588 23.65743177197917 94.51872899834149 H 0.0 **** 0.06
15385 H 18.06467376518328 22.604075841158917 95.35953752033069 H 0.0 **** 0.06
15386 C 8.24842797353239 105.80747390279862 2.6903093327657768 C 0.0 **** -0.24
15387 H 9.199902325578346 106.33949406346883 2.6729933748798924 H 0.0 **** 0.06
15388 H 8.43104265433466 104.74160233914975 2.8325045443440313 H 0.0 **** 0.06
15389 H 7.72738403751497 105.96374039901028 1.7455872983932483 H 0.0 **** 0.06
15390 H 7.637338789473393 106.18399092184845 3.5099669400921663 H 0.0 **** 0.06
15391 C 67.71903950745313 5.156928183043476 93.56038172017026 C 0.0 **** -0.24
15392 H 67.86603806980162 4.115721592629228 93.27270136623343 H 0.0 **** 0.06
15393 H 68.49710932377775 5.451904819519285 94.26360912947513 H 0.0 **** 0.06
15394 H 66.74124049114052 5.269903682587227 94.02909415977007 H 0.0 **** 0.06
15395 H 67.77090991898304 5.788499656059599 92.67379240389283 H 0.0 **** 0.06
15396 C 81.07985158487976 107.85171905427403 58.108321203568266 C 0.0 **** -0.24
15397 H 80.6999460637638 108.85457318126547 58.30763550693567 H 0.0 **** 0.06
15398 H 80.41257770394057 107.34280685900843 57.41236238343177 H 0.0 **** 0.06
15399 H 81.1308922452266 107.29002664660128 59.040441440186726 H 0.0 **** 0.06
15400 H 82.07623416358103 107.92142630358673 57.67058449629529 H 0.0 **** 0.06
15401 C 104.99277870804463 101.2533445122267 94.9852291753815 C 0.0 **** -0.24
15402 H 105.79310275379862 101.070019871831 94.26869084727002 H 0.0 **** 0.06
15403 H 105.28103426670737 100.86061243799833 95.96041016824677 H 0.0 **** 0.06
15404 H 104.08212308921975 100.757417033335 94.64798885587464 H 0.0 **** 0.06
15405 H 104.81394708812542 102.325052938527 95.0635102768315 H 0.0 **** 0.06
15406 C 77.23429069528024 72.79731402483056 105.87718714188551 C 0.0 **** -0.24
15407 H 76.7054684466631 72.98245759191421 106.81211954163425 H 0.0 **** 0.06
15408 H 76.54328900660673 72.90756882585521 105.04161952844564 H 0.0 **** 0.06
15409 H 77.63914492230407 71.78550057459566 105.88413577004934 H 0.0 **** 0.06
15410 H 78.04878363266477 73.51462835374933 105.77286478515813 H 0.0 **** 0.06
15411 C 113.3535425322044 69.49154608093696 79.74719191371571 C 0.0 **** -0.24
15412 H 113.22554288857421 70.31219685778015 79.0408427527947 H 0.0 **** 0.06
15413 H 112.54388239733935 68.77363517056511 79.62050711413778 H 0.0 **** 0.06
15414 H 113.33677030017618 69.8836141524001 80.76445788954629 H 0.0 **** 0.06
15415 H 114.30856210228549 68.99965616580297 79.56258519941917 H 0.0 **** 0.06
15416 C 54.47366845741547 95.06301120990514 15.946297956182082 C 0.0 **** -0.24
15417 H 53.67162283460698 94.85283921394812 16.653823400854012 H 0.0 **** 0.06
15418 H 54.11738407522867 94.88810494580885 14.931244789075052 H 0.0 **** 0.06
15419 H 55.321324429004534 94.40880123131657 16.152953284241445 H 0.0 **** 0.06
15420 H 54.78426755404362 96.10318074236451 16.049454650763124 H 0.0 **** 0.06
15421 C 2.829839265738201 53.873698810969245 64.59676109812617 C 0.0 **** -0.24
15422 H 3.4837655606895055 53.04441327768865 64.86826001655959 H 0.0 **** 0.06
15423 H 3.3371147790626026 54.81741995760916 64.80071877741972 H 0.0 **** 0.06
15424 H 1.9134993765697175 53.82020073118662 65.18321039872194 H 0.0 **** 0.06
15425 H 2.5868501560341315 53.812476935892846 63.53604347711544 H 0.0 **** 0.06
15426 C 33.88101932598916 57.04353964100741 81.11599673149546 C 0.0 **** -0.24
15427 H 33.47278171299495 57.11363392430931 80.1080669138947 H 0.0 **** 0.06
15428 H 33.09424651150182 57.25083443334563 81.84222753761802 H 0.0 **** 0.06
15429 H 34.68534300475784 57.76941945770909 81.2333789809892 H 0.0 **** 0.06
15430 H 34.2716155797858 56.03931825322917 81.28060438304254 H 0.0 **** 0.06
15431 C 50.25545528083492 33.51245582802569 58.2417130383497 C 0.0 **** -0.24
15432 H 50.34827417440471 33.4103389654739 57.15982136949356 H 0.0 **** 0.06
15433 H 51.23640822004205 33.7133221390356 58.67278702430383 H 0.0 **** 0.06
15434 H 49.85492107784901 32.58970946312587 58.66038254465758 H 0.0 **** 0.06
15435 H 49.581536006860205 34.337978210444476 58.471578947705154 H 0.0 **** 0.06
15436 C 9.02171985153339 116.82639161655963 105.35947082797807 C 0.0 **** -0.24
15437 H 8.126441728626371 117.43575077846428 105.48842149618515 H 0.0 **** 0.06
15438 H 9.439687576550178 116.58396731329952 106.33627537285483 H 0.0 **** 0.06
15439 H 9.756949543247249 117.38207007829146 104.77669857323859 H 0.0 **** 0.06
15440 H 8.761897317910815 115.90660139899245 104.83530108157214 H 0.0 **** 0.06
15441 C 71.49833111661925 106.49522148624277 116.99783976177739 C 0.0 **** -0.24
15442 H 70.92692485980314 105.76106787084223 116.42910158724965 H 0.0 **** 0.06
15443 H 71.26443229224562 107.49687139525992 116.63667286743211 H 0.0 **** 0.06
15444 H 72.56344343253953 106.30156877691599 116.8702188474676 H 0.0 **** 0.06
15445 H 71.23910697036709 106.41836402712192 118.05347437946492 H 0.0 **** 0.06
15446 C 69.09043478621172 12.531416952475077 116.4526792997886 C 0.0 **** -0.24
15447 H 68.75241208544608 13.036783504246682 117.35621396876103 H 0.0 **** 0.06
15448 H 68.6453590222915 11.537695896028652 116.40315426218143 H 0.0 **** 0.06
15449 H 70.17721796544012 12.442583926917159 116.47078419125786 H 0.0 **** 0.06
15450 H 68.78836153550472 13.109052759931295 115.578775208967 H 0.0 **** 0.06
15451 C 24.177851711973773 32.292396135827175 58.10659321926636 C 0.0 **** -0.24
15452 H 23.227526306461698 31.861517402169 58.421221300542896 H 0.0 **** 0.06
15453 H 24.724018574534966 32.64378863529669 58.982165485084494 H 0.0 **** 0.06
15454 H 23.99301714852433 33.13006735860566 57.43392106528657 H 0.0 **** 0.06
15455 H 24.76709660051057 31.53437484404816 57.590447023386474 H 0.0 **** 0.06
15456 C 15.02489460434225 121.0635680928431 73.31907996965079 C 0.0 **** -0.24
15457 H 14.395335749592078 120.29121033507201 73.76008655699731 H 0.0 **** 0.06
15458 H 16.05900951187158 120.90964620356186 73.63001920236808 H 0.0 **** 0.06
15459 H 14.685881557004791 122.0439137564116 73.65588156197659 H 0.0 **** 0.06
15460 H 14.959399288105715 121.00962176128796 72.2325649706117 H 0.0 **** 0.06
15461 C 80.91545151805775 120.28774827356179 54.64353642856926 C 0.0 **** -0.24
15462 H 81.02722018200974 119.21801500254318 54.81990874040879 H 0.0 **** 0.06
15463 H 80.152511091056 120.4526028165667 53.883196009788506 H 0.0 **** 0.06
15464 H 81.86477718200118 120.700766541586 54.3028894158886 H 0.0 **** 0.06
15465 H 80.61725733066773 120.77967414806082 55.57015012579413 H 0.0 **** 0.06
15466 C 44.04199407671294 13.243988524880166 45.297718621170844 C 0.0 **** -0.24
15467 H 44.630657819773404 12.752504080643078 46.071604068502864 H 0.0 **** 0.06
15468 H 42.98133497466782 13.135518703309614 45.52310993707903 H 0.0 **** 0.06
15469 H 44.25748784425494 12.786068258480782 44.331863445060634 H 0.0 **** 0.06
15470 H 44.30025315444098 14.302835221168195 45.263313973984765 H 0.0 **** 0.06
15471 C 6.710274992210259 124.27250651067595 86.76607997500284 C 0.0 **** -0.24
15472 H 6.445284112674074 123.36976678558278 87.31605679672523 H 0.0 **** 0.06
15473 H 7.727215995290976 124.17995437976913 86.38489917446606 H 0.0 **** 0.06
15474 H 6.64727628977397 125.13392084710239 87.43110194447615 H 0.0 **** 0.06
15475 H 6.019732821974031 124.40574796837899 85.93251713798352 H 0.0 **** 0.06
15476 C 103.66474568595007 38.70070774312348 89.488200603415 C 0.0 **** -0.24
15477 H 102.57853994012336 38.70978264079594 89.58061516131293 H 0.0 **** 0.06
15478 H 104.04351944844026 37.713412329312874 89.75314385514294 H 0.0 **** 0.06
15479 H 104.0920710195218 39.4464040856725 90.15753135457575 H 0.0 **** 0.06
15480 H 103.94359132280883 38.93299213855749 88.4603490663783 H 0.0 **** 0.06
15481 C 39.078772809765184 57.102981620132894 28.871001608759464 C 0.0 **** -0.24
15482 H 39.05056064167624 57.49081025086015 27.852946743257284 H 0.0 **** 0.06
15483 H 39.24824317657715 57.923913141800355 29.56841969633964 H 0.0 **** 0.06
15484 H 39.88788495595401 56.37747575273637 28.961370500113567 H 0.0 **** 0.06
15485 H 38.12991211099191 56.619346908618866 29.10202870878482 H 0.0 **** 0.06
15486 C 59.28744539260393 117.2821849995097 42.50605307784227 C 0.0 **** -0.24
15487 H 59.618996735103536 116.60899705435213 41.71535881597683 H 0.0 **** 0.06
15488 H 59.80929921663383 117.03961548542728 43.431442883758365 H 0.0 **** 0.06
15489 H 58.213004156790845 117.16886667909665 42.65251716575594 H 0.0 **** 0.06
15490 H 59.508320610850575 118.31117312416677 42.222450749562796 H 0.0 **** 0.06
15491 C 65.96319727590794 16.044997162427183 24.140737228339823 C 0.0 **** -0.24
15492 H 66.72265641933696 16.56653134459719 23.558588973758248 H 0.0 **** 0.06
15493 H 66.03720930287412 14.973199764176222 23.956502954547915 H 0.0 **** 0.06
15494 H 64.97403472537592 16.396304983197133 23.84667943989747 H 0.0 **** 0.06
15495 H 66.11890085018072 16.24302840420266 25.201559441959894 H 0.0 **** 0.06
15496 C 90.45616268729255 34.83148609585872 119.97335186936883 C 0.0 **** -0.24
15497 H 90.89831181369019 35.11199066682909 119.01818907820913 H 0.0 **** 0.06
15498 H 90.31432576248586 35.723648075099874 120.58436256195613 H 0.0 **** 0.06
15499 H 91.11954862633903 34.13812127784081 120.49087487589192 H 0.0 **** 0.06
15500 H 89.49296306289584 34.35176124269336 119.80123497794459 H 0.0 **** 0.06
15501 C 28.479496452628666 33.42102334385419 110.42932444788823 C 0.0 **** -0.24
15502 H 28.951966947301912 34.385003226773506 110.23973768265523 H 0.0 **** 0.06
15503 H 27.400399677984268 33.555053434606066 110.5071628230379 H 0.0 **** 0.06
15504 H 28.863963156673066 33.00543012963749 111.36055445192989 H 0.0 **** 0.06
15505 H 28.702914349329063 32.73975542210212 109.60737356614806 H 0.0 **** 0.06
15506 C 77.6417118204271 84.164099889894 63.45455844227763 C 0.0 **** -0.24
15507 H 77.19108553773614 83.75071227144537 64.35736095986587 H 0.0 **** 0.06
15508 H 77.17046195320283 85.11732127287797 63.21683545770625 H 0.0 **** 0.06
15509 H 77.49784770213869 83.46976515181925 62.627051303181105 H 0.0 **** 0.06
15510 H 78.70910144829054 84.31608168891387 63.619802834478946 H 0.0 **** 0.06
15511 C 114.65581914477832 24.36612201475009 120.60588152450694 C 0.0 **** -0.24
15512 H 113.59434900206463 24.606497554436686 120.66474947612107 H 0.0 **** 0.06
15513 H 114.81129582369203 23.3298798889151 120.90738443898047 H 0.0 **** 0.06
15514 H 115.21562479892503 25.02555467532335 121.26965930515865 H 0.0 **** 0.06
15515 H 115.00298736259924 24.502459105489635 119.58156119065922 H 0.0 **** 0.06
15516 C 32.4370077911034 43.76151764490605 40.078082031176734 C 0.0 **** -0.24
15517 H 32.357089561428786 43.1353904226018 40.96744447362704 H 0.0 **** 0.06
15518 H 32.36619515394533 43.136394741324125 39.187139433873824 H 0.0 **** 0.06
15519 H 33.396309578375686 44.27873615856484 40.084622815656246 H 0.0 **** 0.06
15520 H 31.629375158192403 44.49268083885494 40.07533331109238 H 0.0 **** 0.06
15521 C 119.93623287013023 120.98766400760569 38.56063773313929 C 0.0 **** -0.24
15522 H 119.81042601071556 119.91640724840936 38.40149524507723 H 0.0 **** 0.06
15523 H 119.23360568120529 121.32617533188963 39.32118868426488 H 0.0 **** 0.06
15524 H 119.74571687131608 121.51734595262272 37.62738622196139 H 0.0 **** 0.06
15525 H 120.95486909300276 121.1878783827638 38.89081205437583 H 0.0 **** 0.06
15526 C 66.7409749178743 103.14194245259064 45.43868603738537 C 0.0 **** -0.24
15527 H 65.93231675531449 103.46371851005816 44.782164999877295 H 0.0 **** 0.06
15528 H 67.24641107978007 104.01702090101189 45.84687311286825 H 0.0 **** 0.06
15529 H 67.45297300601736 102.54262523527268 44.87073504115648 H 0.0 **** 0.06
15530 H 66.33065389367563 102.54491091556098 46.253435530217956 H 0.0 **** 0.06
15531 C 111.25271714662074 33.50714901719407 48.63912522188065 C 0.0 **** -0.24
15532 H 110.5122284911796 34.22137155561555 49.00093662365555 H 0.0 **** 0.06
15533 H 111.01307470188155 32.512468822839494 49.01804162377363 H 0.0 **** 0.06
15534 H 112.2425083670307 33.800567019455684 48.98952919980991 H 0.0 **** 0.06
15535 H 111.24174503042994 33.49308371401116 47.549742170877096 H 0.0 **** 0.06
15536 C 83.93053617796545 116.5195815437524 110.36736688398724 C 0.0 **** -0.24
15537 H 83.33158767887102 115.74880933137388 109.881915938992 H 0.0 **** 0.06
15538 H 84.68809867338337 116.88121088069482 109.67201014074476 H 0.0 **** 0.06
15539 H 84.4165669334509 116.10088881006834 111.24862292433727 H 0.0 **** 0.06
15540 H 83.2866432229057 117.34586063072001 110.66549997325609 H 0.0 **** 0.06
15541 C 66.54248024225717 11.471517854968909 112.7357161422016 C 0.0 **** -0.24
15542 H 65.98832247171927 10.556339642296962 112.94534137286142 H 0.0 **** 0.06
15543 H 67.30336106236558 11.271045685758196 111.98049692359632 H 0.0 **** 0.06
15544 H 67.02000843877727 11.82429987506498 113.64925668217276 H 0.0 **** 0.06
15545 H 65.85606457932687 12.235174962739237 112.36693682294565 H 0.0 **** 0.06
15546 C 122.22798896159514 122.14016475564335 74.41303114742074 C 0.0 **** -0.24
15547 H 122.50461459326513 122.46890499016851 73.41120739411149 H 0.0 **** 0.06
15548 H 122.6612657626186 121.15798015232926 74.60528461059837 H 0.0 **** 0.06
15549 H 121.14165391247394 122.0795384731116 74.48826674248406 H 0.0 **** 0.06
15550 H 122.60372891282972 122.85315108573931 75.14677884192801 H 0.0 **** 0.06
15551 C 26.156770904658345 17.605141909081908 89.26215776203576 C 0.0 **** -0.24
15552 H 26.07265505164102 17.758475686404665 90.33757764752382 H 0.0 **** 0.06
15553 H 27.102776098637662 18.018345694256823 88.9092107032761 H 0.0 **** 0.06
15554 H 25.33057681448895 18.10608372900316 88.75814853924952 H 0.0 **** 0.06
15555 H 26.122413614811535 16.538112039589464 89.04378307313162 H 0.0 **** 0.06
15556 C 17.309843448462004 94.76680158161832 118.63852004075667 C 0.0 **** -0.24
15557 H 16.512030325068224 94.64655470334786 117.90648414828462 H 0.0 **** 0.06
15558 H 17.298721736050254 95.78627921297276 119.0246435931735 H 0.0 **** 0.06
15559 H 18.271793534832426 94.56737450613863 118.1650956629687 H 0.0 **** 0.06
15560 H 17.157214581183524 94.066327825791 119.46018098425017 H 0.0 **** 0.06
15561 C 90.91245063608483 26.00587827703771 54.64694961045245 C 0.0 **** -0.24
15562 H 90.78736673382822 26.1036383179964 55.72536404982674 H 0.0 **** 0.06
15563 H 90.39893714842643 26.82646673378207 54.145336990484225 H 0.0 **** 0.06
15564 H 90.48854122751082 25.05701035998044 54.31719783561674 H 0.0 **** 0.06
15565 H 91.97356616229588 26.036339954677317 54.40014681998316 H 0.0 **** 0.06
15566 C 123.256443148899 67.15425992331825 115.59911881004184 C 0.0 **** -0.24
15567 H 124.01082399627305 66.72468539934283 116.25822499988465 H 0.0 **** 0.06
15568 H 122.26868057040465 66.80885541772432 115.9048646886151 H 0.0 **** 0.06
15569 H 123.45044760641727 66.8398826797162 114.57356045790019 H 0.0 **** 0.06
15570 H 123.29643350720113 68.24171312284102 115.65977359296552 H 0.0 **** 0.06
15571 C 31.549998759477972 100.65843922123386 16.451726967542157 C 0.0 **** -0.24
15572 H 31.28537103386182 100.6332694883071 15.394551784327831 H 0.0 **** 0.06
15573 H 30.83503252019449 101.28018406370744 16.990764392452547 H 0.0 **** 0.06
15574 H 32.551541502251666 101.07232153427353 16.565583157760614 H 0.0 **** 0.06
15575 H 31.52759833746026 99.64514215787567 16.85515241620331 H 0.0 **** 0.06
15576 C 68.86413408869137 25.02174659427442 114.87335448700603 C 0.0 **** -0.24
15577 H 69.8822708888234 25.38609725111729 115.00466587797223 H 0.0 **** 0.06
15578 H 68.58858680654069 25.085046716260592 113.82045395989346 H 0.0 **** 0.06
15579 H 68.18050205225049 25.629872509526365 115.46560764906445 H 0.0 **** 0.06
15580 H 68.80471216973436 23.984392438652435 115.20214633441415 H 0.0 **** 0.06
15581 C 109.13772076934933 95.84480954230213 105.43012664236112 C 0.0 **** -0.24
15582 H 109.11166286910941 96.7871215505588 104.88278051948161 H 0.0 **** 0.06
15583 H 110.14705288181068 95.43598461524098 105.40262219330114 H 0.0 **** 0.06
15584 H 108.44637496058746 95.13961287820771 104.96990029658701 H 0.0 **** 0.06
15585 H 108.8427383885893 96.01864815209026 106.46557934975898 H 0.0 **** 0.06
15586 C 99.46248423366092 95.69416487567861 98.4270116304753 C 0.0 **** -0.24
15587 H 98.47244257046441 95.25263319739736 98.53852826894325 H 0.0 **** 0.06
15588 H 99.58592618477513 96.49698876764023 99.1526399744996 H 0.0 **** 0.06
15589 H 99.56972625547706 96.09422239409139 97.41904496047903 H 0.0 **** 0.06
15590 H 100.22107620215957 94.92948760262271 98.59724869433842 H 0.0 **** 0.06
15591 C 9.538298995163771 105.70036952699465 101.47137026095552 C 0.0 **** -0.24
15592 H 10.148221210738384 106.23176005860931 102.20141454751976 H 0.0 **** 0.06
15593 H 10.014085579907686 104.75182479822851 101.22118080740287 H 0.0 **** 0.06
15594 H 9.439957696094979 106.30615336368734 100.57069960762382 H 0.0 **** 0.06
15595 H 8.550163442266594 105.51120410949471 101.89253692635484 H 0.0 **** 0.06
15596 C 12.343231567234739 44.3013089568351 30.991565141425525 C 0.0 **** -0.24
15597 H 12.494434863102072 45.37535190382721 30.8816013249332 H 0.0 **** 0.06
15598 H 11.956312258693728 44.08931475332105 31.98887385800967 H 0.0 **** 0.06
15599 H 13.29212329621457 43.783982159530524 30.852097780314324 H 0.0 **** 0.06
15600 H 11.627829524489428 43.957509011050206 30.24324748017534 H 0.0 **** 0.06
15601 C 56.03793191092009 84.69995167534427 87.28462146101492 C 0.0 **** -0.24
15602 H 55.38738513836543 84.32502761580895 86.49395174605439 H 0.0 **** 0.06
15603 H 55.94014375933705 85.78438043032588 87.35063325195108 H 0.0 **** 0.06
15604 H 57.07198685953219 84.44065932591292 87.05708782168472 H 0.0 **** 0.06
15605 H 55.751655219653486 84.25104279721614 88.23481517169904 H 0.0 **** 0.06
15606 C 89.32790078382445 64.59011777621693 20.600871552300625 C 0.0 **** -0.24
15607 H 89.48265210766364 65.41552594265178 21.29686736907226 H 0.0 **** 0.06
15608 H 88.72667886712397 63.818045710596394 21.081534288632938 H 0.0 **** 0.06
15609 H 90.29326198553001 64.17336301345836 20.31332340829585 H 0.0 **** 0.06
15610 H 88.81025920198681 64.95568340286206 19.713959111347375 H 0.0 **** 0.06
15611 C 76.61873068620316 57.33744391540853 47.25165159148116 C 0.0 **** -0.24
15612 H 76.45742597927577 58.02373836216009 46.41939531184738 H 0.0 **** 0.06
15613 H 75.70219306059373 57.255242601528835 47.8368784667328 H 0.0 **** 0.06
15614 H 77.42140286543884 57.71604057531755 47.88337429425832 H 0.0 **** 0.06
15615 H 76.89246471999233 56.35582414364109 46.864351925496095 H 0.0 **** 0.06
15616 C 67.72032494071908 112.21204927500875 62.622206084939904 C 0.0 **** -0.24
15617 H 67.08476332558608 112.60921169744185 63.41411970917356 H 0.0 **** 0.06
15618 H 67.5597829124021 112.78413893143833 61.70762395890188 H 0.0 **** 0.06
15619 H 67.47065292818183 111.16635129500615 62.44551349622847 H 0.0 **** 0.06
15620 H 68.76485284018015 112.29124890936917 62.92063949380898 H 0.0 **** 0.06
15621 C 74.31666819608853 5.66786753682889 2.4355002715452088 C 0.0 **** -0.24
15622 H 73.83147994246161 5.204797708873123 3.2957232033476487 H 0.0 **** 0.06
15623 H 73.55743611638843 6.013478917024955 1.7333933214547699 H 0.0 **** 0.06
15624 H 74.95958113369466 4.936941621142566 1.9450505095739317 H 0.0 **** 0.06
15625 H 74.91633475941688 6.513829764126815 2.7691551053397347 H 0.0 **** 0.06
15626 C 115.4898052582172 31.721044592926063 44.13264281011689 C 0.0 **** -0.24
15627 H 115.2894823411828 32.70480474671004 43.706239851373766 H 0.0 **** 0.06
15628 H 114.75194191037814 31.00843344483158 43.76325443605879 H 0.0 **** 0.06
15629 H 115.42798758851742 31.77702509942813 45.21947419935566 H 0.0 **** 0.06
15630 H 116.48828101882907 31.395511490149005 43.84126153608855 H 0.0 **** 0.06
15631 C 80.06844513082538 65.03921892557226 36.91507586923046 C 0.0 **** -0.24
15632 H 80.11951572322671 66.12566243171186 36.98752596068721 H 0.0 **** 0.06
15633 H 79.58113492092897 64.63797920965399 37.803594381982776 H 0.0 **** 0.06
15634 H 81.0773568650648 64.63245136730917 36.83887199560803 H 0.0 **** 0.06
15635 H 79.49685412459505 64.76238420766443 36.02880559072143 H 0.0 **** 0.06
15636 C 11.567978458827682 119.73600239633723 37.49495123553012 C 0.0 **** -0.24
15637 H 10.918466825703462 119.78488096584749 38.36786539553496 H 0.0 **** 0.06
15638 H 10.96009004805262 119.72249545556504 36.589914226776415 H 0.0 **** 0.06
15639 H 12.170567286093444 118.8292069053744 37.54175211123598 H 0.0 **** 0.06
15640 H 12.222993562013627 120.60764371844726 37.47931864317677 H 0.0 **** 0.06
15641 C 30.173202692373827 76.91780907571845 23.62892844393862 C 0.0 **** -0.24
15642 H 30.510003537835118 76.44425751430205 24.551258553529294 H 0.0 **** 0.06
15643 H 29.925598441695797 77.96066571111368 23.825770648343223 H 0.0 **** 0.06
15644 H 29.291394830049754 76.39854097427701 23.254184243200015 H 0.0 **** 0.06
15645 H 30.96823461615721 76.86748514991612 22.8847419976469 H 0.0 **** 0.06
15646 C 0.19068190901961657 123.82165809496118 85.22138280966172 C 0.0 **** -0.24
15647 H 0.8831054778274563 123.390374444218 85.94402428208161 H 0.0 **** 0.06
15648 H 0.4948140802298866 123.53792188060457 84.21389529783941 H 0.0 **** 0.06
15649 H 0.20087828800991758 124.90788153963658 85.31129591996081 H 0.0 **** 0.06
15650 H -0.8153357919989901 123.44977578533491 85.41631267963456 H 0.0 **** 0.06
15651 C 91.75163835842355 71.93008986026685 95.89507245025713 C 0.0 **** -0.24
15652 H 92.42328327599688 71.44898830472901 95.18397744154304 H 0.0 **** 0.06
15653 H 92.33840674370836 72.47429915538498 96.63683585598952 H 0.0 **** 0.06
15654 H 91.14803059378187 71.17262560440874 96.39361251487489 H 0.0 **** 0.06
15655 H 91.10039346567729 72.62533553733466 95.36659333603842 H 0.0 **** 0.06
15656 C 65.73292568789226 25.328888293144814 68.38684531916647 C 0.0 **** -0.24
15657 H 66.3175208354735 26.050670704993877 67.81813074563064 H 0.0 **** 0.06
15658 H 64.67362818800791 25.573256418057383 68.30400351315541 H 0.0 **** 0.06
15659 H 66.03206549946805 25.36359685282366 69.43467136594239 H 0.0 **** 0.06
15660 H 65.90737805266153 24.327756028032013 67.99249741059504 H 0.0 **** 0.06
15661 C 104.86580271496246 56.88811299713538 103.67684419051997 C 0.0 **** -0.24
15662 H 104.43020475766951 55.90681211401713 103.48961255669269 H 0.0 **** 0.06
15663 H 104.31021965886711 57.644074327078755 103.12107563064458 H 0.0 **** 0.06
15664 H 105.9067158747736 56.891348751361136 103.3551269664597 H 0.0 **** 0.06
15665 H 104.81388899573301 57.110495251746556 104.743340268319 H 0.0 **** 0.06
15666 C 61.59718651728474 83.06434756155988 11.248309245282769 C 0.0 **** -0.24
15667 H 61.21000120544531 84.01250947091364 10.87615981515026 H 0.0 **** 0.06
15668 H 61.27740674154418 82.92157089297154 12.28059042444049 H 0.0 **** 0.06
15669 H 62.68675454718465 83.07441367829637 11.202157781515965 H 0.0 **** 0.06
15670 H 61.216043583133 82.25018380032526 10.632046208479437 H 0.0 **** 0.06
15671 C 108.95277515193398 14.268256480249342 110.95805269350208 C 0.0 **** -0.24
15672 H 109.77723009033933 13.88709094614729 110.3548473898438 H 0.0 **** 0.06
15673 H 108.07200986746714 14.393715478577843 110.32872668080854 H 0.0 **** 0.06
15674 H 109.23232930589225 15.228749285542253 111.38897108612503 H 0.0 **** 0.06
15675 H 108.73118679891368 13.560988497165912 111.75740700755442 H 0.0 **** 0.06
15676 C 113.12977910876168 46.34465225985838 43.96573729393987 C 0.0 **** -0.24
15677 H 113.95209873980804 46.94453296736171 44.3575782678534 H 0.0 **** 0.06
15678 H 112.24805105003884 46.97364337681495 43.842175466717265 H 0.0 **** 0.06
15679 H 112.90521914646303 45.53662514081586 44.66239412157779 H 0.0 **** 0.06
15680 H 113.41559023900595 45.92427149356902 43.00142524531242 H 0.0 **** 0.06
15681 C 79.08178493254462 54.183062651658105 18.708881252457715 C 0.0 **** -0.24
15682 H 79.47077583593074 54.85339782238594 17.942809119873914 H 0.0 **** 0.06
15683 H 79.63988683092032 53.246650552750026 18.690002924973925 H 0.0 **** 0.06
15684 H 78.02775432653709 53.982441444638596 18.515427512457265 H 0.0 **** 0.06
15685 H 79.18835539346736 54.65105717285502 19.687715044747222 H 0.0 **** 0.06
15686 C 119.72576876290822 95.725790667507 7.92067385621386 C 0.0 **** -0.24
15687 H 119.78308266581729 96.67006417357578 7.377925806969031 H 0.0 **** 0.06
15688 H 118.68336210961624 95.50436305896231 8.153070012341054 H 0.0 **** 0.06
15689 H 120.29595292061504 95.80266452773964 8.845605236370968 H 0.0 **** 0.06
15690 H 120.13783767925094 94.92765338675247 7.304241599466128 H 0.0 **** 0.06
15691 C 30.191753090041374 13.463167901741315 50.335464580806324 C 0.0 **** -0.24
15692 H 30.383639446889703 13.338488638694798 51.40094822153256 H 0.0 **** 0.06
15693 H 31.12950851794318 13.381925001667895 49.78543360161537 H 0.0 **** 0.06
15694 H 29.750924591015263 14.444911328663238 50.15791495544786 H 0.0 **** 0.06
15695 H 29.50255407384205 12.689733067783777 49.99716596108651 H 0.0 **** 0.06
15696 C 2.46648193565386 58.53334503975782 50.578150717837644 C 0.0 **** -0.24
15697 H 1.980561638054013 57.814414631513415 49.918358894310536 H 0.0 **** 0.06
15698 H 1.8166555162327995 59.39798903169287 50.71377559865494 H 0.0 **** 0.06
15699 H 3.409880781949539 58.85274939563466 50.13526113223584 H 0.0 **** 0.06
15700 H 2.657858783261304 58.06624803201355 51.54483218432176 H 0.0 **** 0.06
15701 C 89.6394843999735 49.36701689984935 100.65062525869087 C 0.0 **** -0.24
15702 H 90.6612767363421 49.72043780651293 100.79777119310504 H 0.0 **** 0.06
15703 H 89.65944198696772 48.32113146958437 100.34250332156802 H 0.0 **** 0.06
15704 H 89.15628876946235 49.96565313459624 99.87834981804411 H 0.0 **** 0.06
15705 H 89.08541260660868 49.461368196124226 101.5846734376899 H 0.0 **** 0.06
15706 C 117.64053461264581 38.440096292852786 106.02002757508242 C 0.0 **** -0.24
15707 H 117.37685730658433 39.41112413927782 106.43859164515221 H 0.0 **** 0.06
15708 H 118.55705609737913 38.53342676996736 105.43795243677899 H 0.0 **** 0.06
15709 H 116.83382622614994 38.09120636969212 105.37567201641774 H 0.0 **** 0.06
15710 H 117.79427896561918 37.72607427173534 106.82959534570351 H 0.0 **** 0.06
15711 C 103.32570721021368 38.15290935883462 11.641511868976593 C 0.0 **** -0.24
15712 H 102.34960653137607 38.175933478736 12.126534637232268 H 0.0 **** 0.06
15713 H 103.30796246275493 37.43229894312759 10.823811149550636 H 0.0 **** 0.06
15714 H 104.08458970336906 37.859867869166806 12.367590239590768 H 0.0 **** 0.06
15715 H 103.5602260474511 39.14256055167499 11.250313577458343 H 0.0 **** 0.06
15716 C 62.044513739748766 45.144392879397 80.41227227695879 C 0.0 **** -0.24
15717 H 62.29279532141865 44.944211199966446 79.36998956256042 H 0.0 **** 0.06
15718 H 62.89113325234018 45.627714724449476 80.90084996176319 H 0.0 **** 0.06
15719 H 61.82058223731383 44.20490183834983 80.91817148266625 H 0.0 **** 0.06
15720 H 61.17526122983125 45.799311356555535 80.46008963525185 H 0.0 **** 0.06
15721 C 80.4467672831332 74.64847251363594 77.97296057769913 C 0.0 **** -0.24
15722 H 79.76834796131762 73.87253951112409 77.61818753603504 H 0.0 **** 0.06
15723 H 81.33733771104221 74.66965939843122 77.34415442156748 H 0.0 **** 0.06
15724 H 80.73398395813025 74.43648321222862 79.00304836367249 H 0.0 **** 0.06
15725 H 79.94663201214814 75.61652167190813 77.92809068315685 H 0.0 **** 0.06
15726 C 9.198168719822664 65.35786856285397 95.54535217483183 C 0.0 **** -0.24
15727 H 8.641958107883127 65.99844025358065 94.86125908984658 H 0.0 **** 0.06
15728 H 10.12679352169043 65.85201903335694 95.83249159020167 H 0.0 **** 0.06
15729 H 9.426774167093672 64.41203353466486 95.05359065976532 H 0.0 **** 0.06
15730 H 8.597294320543998 65.16899167740364 96.43505673030214 H 0.0 **** 0.06
15731 C 52.44410444185263 50.84784192113199 106.75465973499416 C 0.0 **** -0.24
15732 H 52.670487324357595 51.840130068940326 106.36532864833092 H 0.0 **** 0.06
15733 H 52.568787135685994 50.84517658884087 107.83855085068267 H 0.0 **** 0.06
15734 H 53.12129996073689 50.11952420327118 106.30867853651962 H 0.0 **** 0.06
15735 H 51.41497450433454 50.58671477118506 106.50654296645418 H 0.0 **** 0.06
15736 C 123.88185038026123 65.58744463771461 29.656032860749747 C 0.0 **** -0.24
15737 H 123.5636766235748 66.34949254558018 28.944610235161917 H 0.0 **** 0.06
15738 H 124.79141348316523 65.9175963938506 30.15899066168504 H 0.0 **** 0.06
15739 H 124.07825053482694 64.65503609272457 29.127421516463016 H 0.0 **** 0.06
15740 H 123.09590473646891 65.4283305326168 30.394177725939528 H 0.0 **** 0.06
15741 C 102.76911519864281 66.17739393290196 1.3128558431582178 C 0.0 **** -0.24
15742 H 103.75011062095382 65.72293860540108 1.4492230323070032 H 0.0 **** 0.06
15743 H 102.00679908921698 65.53652970748384 1.7566811906719977 H 0.0 **** 0.06
15744 H 102.56913148035542 66.2968407501547 0.24781326055119735 H 0.0 **** 0.06
15745 H 102.7509474347522 67.15408776868624 1.797488534635022 H 0.0 **** 0.06
15746 C 72.51987861997587 18.400063256232386 14.827986925169625 C 0.0 **** -0.24
15747 H 72.76570923029337 17.423868364874693 15.248121009323256 H 0.0 **** 0.06
15748 H 71.64003833312425 18.79961191470477 15.33288263426192 H 0.0 **** 0.06
15749 H 72.31278560109483 18.295012836454987 13.763469407579066 H 0.0 **** 0.06
15750 H 73.36048843440867 19.078807615786616 14.970643569297124 H 0.0 **** 0.06
15751 C 52.9703085458965 12.713026404669733 59.169733943076835 C 0.0 **** -0.24
15752 H 52.49675819548662 11.732479320979849 59.12166955271471 H 0.0 **** 0.06
15753 H 52.76970225913652 13.165757174218584 60.14044329296354 H 0.0 **** 0.06
15754 H 52.56875575262342 13.349878524102621 58.38127566255173 H 0.0 **** 0.06
15755 H 54.04700249067599 12.604162458439134 59.035511914281244 H 0.0 **** 0.06
15756 C 39.0878269961065 37.976875052689586 119.43932411442076 C 0.0 **** -0.24
15757 H 39.01404272769494 36.89431392201018 119.32810327268795 H 0.0 **** 0.06
15758 H 39.953991685420675 38.34014878789732 118.88684552123581 H 0.0 **** 0.06
15759 H 39.198149411979244 38.22639180291325 120.49391976323784 H 0.0 **** 0.06
15760 H 38.18444265848939 38.44466180221116 119.04765331516872 H 0.0 **** 0.06
15761 C 34.64691758795536 10.648267847244085 50.02054258998484 C 0.0 **** -0.24
15762 H 34.78728463438918 10.851690355756432 51.08254924127093 H 0.0 **** 0.06
15763 H 35.36643836794511 9.895697150792273 49.69711109479759 H 0.0 **** 0.06
15764 H 34.8005088070565 11.566235290448219 49.45156252086037 H 0.0 **** 0.06
15765 H 33.63511071466834 10.281128436285087 49.851565794898384 H 0.0 **** 0.06
15766 C 88.38902357123175 75.89375491259781 0.5080289715206963 C 0.0 **** -0.24
15767 H 89.29892760403973 75.8495306457791 -0.0912945006021566 H 0.0 **** 0.06
15768 H 88.6277382861775 75.663453069469 1.5467127997829184 H 0.0 **** 0.06
15769 H 87.66995530758729 75.16722580433537 0.1298213755188904 H 0.0 **** 0.06
15770 H 87.9617996726723 76.89492400629078 0.4461183500529611 H 0.0 **** 0.06
15771 C 56.4410723520416 112.19366829610644 8.784871905200674 C 0.0 **** -0.24
15772 H 57.434262932444256 112.19517745734191 8.335735062750189 H 0.0 **** 0.06
15773 H 55.71389112228937 112.55582813367707 8.057577287111684 H 0.0 **** 0.06
15774 H 56.436648590096695 112.84587189997282 9.658819074022261 H 0.0 **** 0.06
15775 H 56.180396481836 111.17977827782029 9.086241704593334 H 0.0 **** 0.06
15776 C 97.60112926200604 71.19047823264384 11.060629151165791 C 0.0 **** -0.24
15777 H 97.29439374687406 71.39273496044993 12.086511800792373 H 0.0 **** 0.06
15778 H 98.22319416352164 72.00960800943764 10.698799889370203 H 0.0 **** 0.06
15779 H 96.71708552885744 71.0997013117535 10.428271642670552 H 0.0 **** 0.06
15780 H 98.16807934998775 70.26074641307716 11.027478196987243 H 0.0 **** 0.06
15781 C 11.186035709321345 87.1025516402907 83.37664877460543 C 0.0 **** -0.24
15782 H 11.841679899371389 86.59624315958774 84.08510140292611 H 0.0 **** 0.06
15783 H 10.154409484824175 86.7952771624793 83.55418059457304 H 0.0 **** 0.06
15784 H 11.474987105673765 86.83547920598886 82.36013260961062 H 0.0 **** 0.06
15785 H 11.272331021496967 88.18052162657034 83.50829779616691 H 0.0 **** 0.06
15786 C 73.45046934063595 28.63646823741459 4.249849201465253 C 0.0 **** -0.24
15787 H 74.13450330627728 28.098053162782605 4.905471366426383 H 0.0 **** 0.06
15788 H 72.46187072135945 28.675952772707376 4.7099509090726315 H 0.0 **** 0.06
15789 H 73.38513016378846 28.121993045107217 3.291496584977068 H 0.0 **** 0.06
15790 H 73.81903487027864 29.649745878131966 4.094264789445049 H 0.0 **** 0.06
15791 C 65.89280090631613 100.72204477068482 25.390286423537162 C 0.0 **** -0.24
15792 H 65.5459869429092 99.78370600008157 24.957956560844337 H 0.0 **** 0.06
15793 H 66.76204991705194 100.5316519876234 26.019605453073353 H 0.0 **** 0.06
15794 H 65.09739746938453 101.16146368701718 25.991599199283996 H 0.0 **** 0.06
15795 H 66.16724761251544 101.41114170708838 24.59032065365193 H 0.0 **** 0.06
15796 C 36.988889877926056 84.60221385323868 61.7804827780531 C 0.0 **** -0.24
15797 H 36.13544076975383 83.9404411656551 61.93101610918829 H 0.0 **** 0.06
15798 H 37.091206008215764 85.2633017103909 62.64119119185709 H 0.0 **** 0.06
15799 H 36.83230169688201 85.19828907949031 60.88147934672878 H 0.0 **** 0.06
15800 H 37.89455718194009 84.00752431497116 61.66938059842303 H 0.0 **** 0.06
15801 C 89.47421517278241 79.39194781609609 116.87359116568663 C 0.0 **** -0.24
15802 H 90.44150523330144 79.03431414313835 117.22725460757425 H 0.0 **** 0.06
15803 H 89.3858736685811 79.20130252372721 115.80331786397122 H 0.0 **** 0.06
15804 H 89.39192786853951 80.46175898844871 117.06042119179696 H 0.0 **** 0.06
15805 H 88.67875784553247 78.86785653601959 117.40341725011109 H 0.0 **** 0.06
15806 C 105.33770760801036 8.204435435110941 67.75868250818806 C 0.0 **** -0.24
15807 H 105.77596848159305 8.480114166233573 68.71795794335688 H 0.0 **** 0.06
15808 H 105.00419053790279 9.103529323200668 67.2405374994442 H 0.0 **** 0.06
15809 H 104.48590902835736 7.543458091717085 67.92488101598465 H 0.0 **** 0.06
15810 H 106.08353048904081 7.690641862142918 67.15292921540427 H 0.0 **** 0.06
15811 C 98.94257815617513 61.64177812896537 37.86567233901939 C 0.0 **** -0.24
15812 H 98.16414961948315 60.8912424637831 37.728249860447484 H 0.0 **** 0.06
15813 H 98.82139164656894 62.11612269759877 38.839441180734745 H 0.0 **** 0.06
15814 H 98.86435107243747 62.3942473081577 37.08174294234824 H 0.0 **** 0.06
15815 H 99.92097245413605 61.16311355322023 37.81326448305841 H 0.0 **** 0.06
15816 C 116.44868398022274 75.7187527613068 102.03163369049929 C 0.0 **** -0.24
15817 H 116.68024848156931 76.77817776737871 102.14277890598981 H 0.0 **** 0.06
15818 H 115.38188460000586 75.56202638912956 102.19179811552601 H 0.0 **** 0.06
15819 H 117.0149655646951 75.1440429863714 102.76453924342712 H 0.0 **** 0.06
15820 H 116.71763727462066 75.39076390234717 101.02741849705382 H 0.0 **** 0.06
15821 C 40.77224948329835 46.34930930415631 27.955980251168313 C 0.0 **** -0.24
15822 H 40.24863785330521 45.670531949401564 27.283276872978263 H 0.0 **** 0.06
15823 H 40.60453170251324 47.37879871672839 27.637452271113006 H 0.0 **** 0.06
15824 H 41.84021564855112 46.130577555992325 27.93376670915893 H 0.0 **** 0.06
15825 H 40.39541421829309 46.21667304107203 28.970662255263733 H 0.0 **** 0.06
15826 C 39.04341857249389 41.495221659810596 120.65329153506877 C 0.0 **** -0.24
15827 H 38.937493928094284 40.48645538593195 120.25653697392625 H 0.0 **** 0.06
15828 H 38.937729365835764 41.471394056204986 121.73793882754529 H 0.0 **** 0.06
15829 H 38.27333583455351 42.13721532055726 120.22659565064157 H 0.0 **** 0.06
15830 H 40.02759519154995 41.886995564520475 120.39330810897468 H 0.0 **** 0.06
15831 C 68.74479175361078 68.12185196869413 12.937225512662966 C 0.0 **** -0.24
15832 H 68.28563102177547 67.45954066068137 13.67200978704108 H 0.0 **** 0.06
15833 H 68.77932779430374 69.13604724685345 13.335431389237137 H 0.0 **** 0.06
15834 H 68.15603081079219 68.1107169541381 12.020451699578604 H 0.0 **** 0.06
15835 H 69.75744396559068 67.77989556835638 12.72365580510446 H 0.0 **** 0.06
15836 C 52.692836378083925 122.44931446172592 112.49063717199672 C 0.0 **** -0.24
15837 H 52.564884679768895 121.85334170375882 111.58627573284177 H 0.0 **** 0.06
15838 H 52.740482900778034 121.7892587858434 113.35664930293441 H 0.0 **** 0.06
15839 H 51.848716329077035 123.13093904988648 112.5986140615235 H 0.0 **** 0.06
15840 H 53.6164274365172 123.02298879124118 112.41882503245824 H 0.0 **** 0.06
15841 C 59.257090939936774 53.88211251764645 114.66781246222584 C 0.0 **** -0.24
15842 H 59.34000696482798 54.690320814681655 115.39498302592955 H 0.0 **** 0.06
15843 H 58.90148655859841 54.2825414394828 113.7189843142574 H 0.0 **** 0.06
15844 H 58.55327633955281 53.13445843227586 115.03484261757728 H 0.0 **** 0.06
15845 H 60.23441670680697 53.42121780053753 114.52549205470274 H 0.0 **** 0.06
15846 C 102.26800466810892 113.4853973008414 87.32941116465304 C 0.0 **** -0.24
15847 H 101.81952024032637 112.49964711525303 87.45043993750517 H 0.0 **** 0.06
15848 H 101.70548569247535 114.0514071665989 86.58594427369711 H 0.0 **** 0.06
15849 H 103.30090372963838 113.37636997283653 86.99849986766384 H 0.0 **** 0.06
15850 H 102.24500848174807 114.01379833697453 88.28195154285919 H 0.0 **** 0.06
15851 C 56.583051269683494 48.4502449163344 70.36234187720166 C 0.0 **** -0.24
15852 H 56.02542560933017 48.142223223818235 69.47734808226711 H 0.0 **** 0.06
15853 H 57.64023981946056 48.22131313662976 70.22320385938333 H 0.0 **** 0.06
15854 H 56.20544857676492 47.91468555259489 71.23274122365405 H 0.0 **** 0.06
15855 H 56.46075285073417 49.52316129277477 70.51312082978545 H 0.0 **** 0.06
15856 C 106.17398377910831 121.55079957375577 53.60631938790044 C 0.0 **** -0.24
15857 H 106.00107975457814 122.17858495191422 54.48000948381838 H 0.0 **** 0.06
15858 H 107.22652281491526 121.59920618856734 53.327701245789 H 0.0 **** 0.06
15859 H 105.5620216719957 121.9061920112029 52.7777680866339 H 0.0 **** 0.06
15860 H 105.90535432431687 120.52110495297413 53.84051560254369 H 0.0 **** 0.06
15861 C 35.19575764317297 39.87377208249151 40.57690365918243 C 0.0 **** -0.24
15862 H 34.426790054791056 40.40327953716286 40.013691928904215 H 0.0 **** 0.06
15863 H 34.895959474961 38.83519193349201 40.71263124551902 H 0.0 **** 0.06
15864 H 35.322084085100556 40.34703043356083 41.55046303146755 H 0.0 **** 0.06
15865 H 36.13753496856539 39.91230391418472 40.02974329977582 H 0.0 **** 0.06
15866 C 108.23843720943518 108.70118564713546 30.267043107247602 C 0.0 **** -0.24
15867 H 107.30149214551898 108.81745470084054 30.812332200103796 H 0.0 **** 0.06
15868 H 108.98189961136097 108.24171246790331 30.918423767105082 H 0.0 **** 0.06
15869 H 108.59316909321973 109.67943043828903 29.943687132686122 H 0.0 **** 0.06
15870 H 108.07484885911347 108.06666325308136 29.396423873475612 H 0.0 **** 0.06
15871 C 101.6956124640754 77.70705987381666 113.30586126308876 C 0.0 **** -0.24
15872 H 102.40432790145513 77.60442650123053 112.4833075587003 H 0.0 **** 0.06
15873 H 102.04094406699289 78.48446751380646 113.9878533349007 H 0.0 **** 0.06
15874 H 101.6218781471382 76.7595879329852 113.84075371997066 H 0.0 **** 0.06
15875 H 100.71640150926862 77.97842074174275 112.91011646381054 H 0.0 **** 0.06
15876 C 75.78370401843956 13.28493896802226 47.93536711102996 C 0.0 **** -0.24
15877 H 75.90824654959856 14.366997972851294 47.973735857547524 H 0.0 **** 0.06
15878 H 76.7495192647485 12.803176095384885 48.08878865228394 H 0.0 **** 0.06
15879 H 75.38562793664558 13.00027805206895 46.96077521249316 H 0.0 **** 0.06
15880 H 75.09217562891764 12.970804526983443 48.71669207973969 H 0.0 **** 0.06
15881 C 59.744530734939104 76.53064061267236 117.9980148787852 C 0.0 **** -0.24
15882 H 59.58302451459882 76.28093640376449 119.04656828471781 H 0.0 **** 0.06
15883 H 59.48965294682807 77.57734428159438 117.83081000013597 H 0.0 **** 0.06
15884 H 59.11408305287178 75.89756794923522 117.37382226657235 H 0.0 **** 0.06
15885 H 60.7915239732564 76.36516336294562 117.74246216846053 H 0.0 **** 0.06
15886 C 49.69596616387554 85.25168434655602 54.87203140743898 C 0.0 **** -0.24
15887 H 49.35070638121647 84.76174275390925 55.78147988373074 H 0.0 **** 0.06
15888 H 50.783728633150076 85.19594469909059 54.81910065444846 H 0.0 **** 0.06
15889 H 49.385751490070334 86.29702568820998 54.881523198145246 H 0.0 **** 0.06
15890 H 49.26440544562752 84.7523422890962 54.00393140097751 H 0.0 **** 0.06
15891 C 15.48923520078938 5.738884341950239 108.85547443305273 C 0.0 **** -0.24
15892 H 14.6593720573714 5.155179688346692 108.45682576759629 H 0.0 **** 0.06
15893 H 16.19618895242803 5.073361156858937 109.35225614062834 H 0.0 **** 0.06
15894 H 15.110689462438359 6.468768471481496 109.57095327946735 H 0.0 **** 0.06
15895 H 15.99157099691513 6.258404350559886 108.0388304030071 H 0.0 **** 0.06
15896 C 14.191132737305054 97.02204268824389 68.30409055899702 C 0.0 **** -0.24
15897 H 14.885968072024127 96.25469270288323 67.96041825566328 H 0.0 **** 0.06
15898 H 13.531396277463358 96.59986091130219 69.06220273034194 H 0.0 **** 0.06
15899 H 13.597858682749148 97.37779337817489 67.46177408286178 H 0.0 **** 0.06
15900 H 14.750875162465661 97.85382643837715 68.73072022106504 H 0.0 **** 0.06
15901 C 18.945839149962065 72.36565198665926 0.7355549793815896 C 0.0 **** -0.24
15902 H 19.303349704936522 71.48957211768862 0.1954300700463154 H 0.0 **** 0.06
15903 H 18.562921467142 73.09911044313401 0.025691282002981097 H 0.0 **** 0.06
15904 H 19.76724966106875 72.80267622198704 1.302701571781343 H 0.0 **** 0.06
15905 H 18.149259594792028 72.07001383774838 1.4194657108151514 H 0.0 **** 0.06
15906 C 50.53913248193456 101.12419753901438 63.051357985576146 C 0.0 **** -0.24
15907 H 50.32797178796798 101.93604162024596 62.355072069346335 H 0.0 **** 0.06
15908 H 49.95210700867162 100.2483066612902 62.776109114058016 H 0.0 **** 0.06
15909 H 50.27738691030112 101.43500297481499 64.06263535962543 H 0.0 **** 0.06
15910 H 51.60055865738278 100.87808275224039 63.01008165179711 H 0.0 **** 0.06
15911 C 41.671698960791815 85.19406788370611 13.1305215858603 C 0.0 **** -0.24
15912 H 42.41509473985104 85.94858776805481 12.87540179239286 H 0.0 **** 0.06
15913 H 40.69959302876032 85.4969604101516 12.739897794053007 H 0.0 **** 0.06
15914 H 41.61281902611256 85.09372023623831 14.214153070014234 H 0.0 **** 0.06
15915 H 41.958676246550795 84.23834378028748 12.691724145490205 H 0.0 **** 0.06
15916 C 107.37746717595795 23.782489836357854 30.17164906742505 C 0.0 **** -0.24
15917 H 107.74200318656077 24.740059716611427 29.80137070491253 H 0.0 **** 0.06
15918 H 106.71344398432416 23.949997576041994 31.019473960061873 H 0.0 **** 0.06
15919 H 108.22106335513831 23.168623393861196 30.48537366058855 H 0.0 **** 0.06
15920 H 106.83174373184795 23.270902598857987 29.378086095088463 H 0.0 **** 0.06
15921 C 14.804252463029261 3.4639748065970934 94.66860086843332 C 0.0 **** -0.24
15922 H 14.603950869591813 3.4636780683163693 93.59701097112517 H 0.0 **** 0.06
15923 H 15.20854395597592 2.4959770740873637 94.96323528866964 H 0.0 **** 0.06
15924 H 13.877470408937217 3.652244382827803 95.21016459904163 H 0.0 **** 0.06
15925 H 15.527386098109982 4.2467120371678675 94.90164158926083 H 0.0 **** 0.06
15926 C 91.8212530061326 103.28983004377932 57.49244293390302 C 0.0 **** -0.24
15927 H 90.76312714122537 103.41858041330983 57.71925933390497 H 0.0 **** 0.06
15928 H 92.182313058041 102.37101332507945 57.95406633129471 H 0.0 **** 0.06
15929 H 92.38245132708185 104.13844495948791 57.88284124877316 H 0.0 **** 0.06
15930 H 91.95626665924208 103.23122697410105 56.41247872407712 H 0.0 **** 0.06
15931 C 10.312717272111353 112.43389676351245 120.5632033307466 C 0.0 **** -0.24
15932 H 10.147272760794454 112.84162309681679 119.56610351489891 H 0.0 **** 0.06
15933 H 9.812668047157825 111.46961646355221 120.64824408563798 H 0.0 **** 0.06
15934 H 9.90841149003689 113.1206545544693 121.30729291805088 H 0.0 **** 0.06
15935 H 11.382293268928006 112.3058709788757 120.73071843729285 H 0.0 **** 0.06
15936 C 111.20998747178513 44.72531689217871 122.20987575756368 C 0.0 **** -0.24
15937 H 111.4770146588795 45.526838700548275 121.52022218749718 H 0.0 **** 0.06
15938 H 110.53098591677329 44.03081222810354 121.71419751598114 H 0.0 **** 0.06
15939 H 110.72045300466311 45.1486715722055 123.08644662277489 H 0.0 **** 0.06
15940 H 112.11143645699954 44.195359940434734 122.51728599826365 H 0.0 **** 0.06
15941 C 51.203065106368115 98.11989181355352 56.75583170109398 C 0.0 **** -0.24
15942 H 50.28653396228913 98.44964401807796 57.245854042134454 H 0.0 **** 0.06
15943 H 51.77235532923015 98.99034166406062 56.429720664700056 H 0.0 **** 0.06
15944 H 50.951808480669854 97.5055542430863 55.891780133046964 H 0.0 **** 0.06
15945 H 51.799485518250265 97.53606841611487 57.45669304425029 H 0.0 **** 0.06
15946 C 63.74583180568851 76.59909919383409 87.83968886978458 C 0.0 **** -0.24
15947 H 63.04095413892452 77.02126228141537 88.55587914066156 H 0.0 **** 0.06
15948 H 64.6282416274392 76.23786001269792 88.36872092602347 H 0.0 **** 0.06
15949 H 64.0404469629795 77.36710649013799 87.12455223502813 H 0.0 **** 0.06
15950 H 63.27372119110214 75.77163868342564 87.31128721585617 H 0.0 **** 0.06
15951 C 71.57694536628166 88.17317869409774 60.65520161611036 C 0.0 **** -0.24
15952 H 71.51868878070148 87.50217140606263 61.512483437997474 H 0.0 **** 0.06
15953 H 70.77974761561282 87.93496738243135 59.952387470501094 H 0.0 **** 0.06
15954 H 72.54351786717098 88.05117715698124 60.16496391214852 H 0.0 **** 0.06
15955 H 71.46895434594663 89.20372202400628 60.992911657101814 H 0.0 **** 0.06
15956 C 116.08706098026839 39.03362240039715 112.06135736014687 C 0.0 **** -0.24
15957 H 117.16890213521283 39.13336397601856 112.1493064280794 H 0.0 **** 0.06
15958 H 115.83446661866503 38.688856040357194 111.0579730745037 H 0.0 **** 0.06
15959 H 115.6175486691103 40.00103618586721 112.24138374334132 H 0.0 **** 0.06
15960 H 115.72778840396035 38.312324796606504 112.79462240905684 H 0.0 **** 0.06
15961 C 116.24171059427708 30.720184440156203 105.9357558179251 C 0.0 **** -0.24
15962 H 117.30560505157779 30.73868169863607 106.17277091791686 H 0.0 **** 0.06
15963 H 115.66589884108258 30.964433216892417 106.82798898465097 H 0.0 **** 0.06
15964 H 115.96565654965448 29.725047956232487 105.58580968476218 H 0.0 **** 0.06
15965 H 116.03033411602911 31.451573663659104 105.15569716935175 H 0.0 **** 0.06
15966 C 87.3505281460599 16.90595713277088 88.97973126184192 C 0.0 **** -0.24
15967 H 86.78302794244483 16.865218820303596 89.90994019764219 H 0.0 **** 0.06
15968 H 86.66332503504297 17.007039329901545 88.13937359337243 H 0.0 **** 0.06
15969 H 87.92953212958643 15.989043394528437 88.86742223781697 H 0.0 **** 0.06
15970 H 88.0252099895716 17.76064048684833 89.00282628358813 H 0.0 **** 0.06
15971 C 16.03991484386159 26.752257167061828 114.71951972620332 C 0.0 **** -0.24
15972 H 15.201586012617547 27.364654217194158 115.0511645893872 H 0.0 **** 0.06
15973 H 16.35461779656487 26.09652605927856 115.53128598976107 H 0.0 **** 0.06
15974 H 16.870479161039228 27.398894615260474 114.43264039743327 H 0.0 **** 0.06
15975 H 15.734631285717974 26.150759457689816 113.86302268144871 H 0.0 **** 0.06
15976 C 113.7797134235271 92.41391558582214 45.832128791436105 C 0.0 **** -0.24
15977 H 113.22274695810644 92.85095855282566 46.66060418694329 H 0.0 **** 0.06
15978 H 114.74816904842329 92.90748279842242 45.74432288902125 H 0.0 **** 0.06
15979 H 113.2191998315091 92.54683540325246 44.907322601399954 H 0.0 **** 0.06
15980 H 113.92903402421513 91.34944584966036 46.01643645160922 H 0.0 **** 0.06
15981 C 27.98030487691088 79.67845336671303 114.75580930218746 C 0.0 **** -0.24
15982 H 28.73438407853169 79.06401972988715 114.2641330262193 H 0.0 **** 0.06
15983 H 27.20655462363669 79.03587189807332 115.17748498199194 H 0.0 **** 0.06
15984 H 27.534242753650858 80.35612196115389 114.02819158646608 H 0.0 **** 0.06
15985 H 28.44802173813332 80.25777059764454 115.55239591672303 H 0.0 **** 0.06
15986 C 88.25559311601887 57.0577216482061 80.18087490883454 C 0.0 **** -0.24
15987 H 88.68440959497104 56.669570119560206 81.10450010329986 H 0.0 **** 0.06
15988 H 87.85555887883493 56.23243713580297 79.591440591895 H 0.0 **** 0.06
15989 H 89.03021688803364 57.57083722842782 79.60943530996418 H 0.0 **** 0.06
15990 H 87.45457313303322 57.75761678310124 80.41776827594931 H 0.0 **** 0.06
15991 C 48.3269437694902 77.0651501537478 104.26607134907688 C 0.0 **** -0.24
15992 H 48.19177123457338 78.14555382928884 104.32976649088256 H 0.0 **** 0.06
15993 H 47.96300277852208 76.59948082635859 105.18255910200187 H 0.0 **** 0.06
15994 H 49.38536464555873 76.8392116124719 104.13918677865475 H 0.0 **** 0.06
15995 H 47.767897161034576 76.67946529842041 103.41389310694207 H 0.0 **** 0.06
15996 C 83.45509355690174 6.47808205688203 32.642129939601034 C 0.0 **** -0.24
15997 H 83.00312566597083 6.845368234540999 33.56339786259949 H 0.0 **** 0.06
15998 H 84.39568428165265 7.001022060980219 32.46585002208215 H 0.0 **** 0.06
15999 H 82.77691178512947 6.658080865540143 31.80724390661723 H 0.0 **** 0.06
16000 H 83.64523927137836 5.4091129823617905 32.73174783174119 H 0.0 **** 0.06
16001 C 119.24442616061673 86.79522600583812 25.488584253244085 C 0.0 **** -0.24
16002 H 118.81467686065774 87.41394659820025 24.701053267498708 H 0.0 **** 0.06
16003 H 118.98114359959662 87.21230523910671 26.461403350648055 H 0.0 **** 0.06
16004 H 120.32889785536295 86.7746247489133 25.382823124342906 H 0.0 **** 0.06
16005 H 118.85151805624587 85.78168762452431 25.408760239550986 H 0.0 **** 0.06
16006 C 123.16602652718052 102.60875741351089 94.53125654556067 C 0.0 **** -0.24
16007 H 123.47678617628583 102.91509182384954 93.53332504547939 H 0.0 **** 0.06
16008 H 122.2230273570712 103.09586118852258 94.7835882646952 H 0.0 **** 0.06
16009 H 123.9284117146745 102.89736201504553 95.25476045740504 H 0.0 **** 0.06
16010 H 123.03403057422742 101.52691240266978 94.55494541384161 H 0.0 **** 0.06
16011 C 82.85591242531429 12.670920037758915 10.02601311014076 C 0.0 **** -0.24
16012 H 82.50552527715703 11.63892978080123 10.000899781435102 H 0.0 **** 0.06
16013 H 82.28359753681866 13.265634827203794 9.313328221255148 H 0.0 **** 0.06
16014 H 83.91248362216314 12.701937082806932 9.760494862169065 H 0.0 **** 0.06
16015 H 82.7205155420451 13.075640622916254 11.02878058868523 H 0.0 **** 0.06
16016 C 114.74543896338818 114.81718326259258 71.63633482412956 C 0.0 **** -0.24
16017 H 113.6765403150782 114.75430870099089 71.43489470609862 H 0.0 **** 0.06
16018 H 114.92945347466589 115.59033363648973 72.38255589438154 H 0.0 **** 0.06
16019 H 115.27489457723836 115.06673192079003 70.71635222999453 H 0.0 **** 0.06
16020 H 115.10189231663189 113.85814853564762 72.0109653831064 H 0.0 **** 0.06
16021 C 5.472444891176536 103.55656219956333 64.98159862910052 C 0.0 **** -0.24
16022 H 5.456177559503232 103.59596505749019 63.89179517429341 H 0.0 **** 0.06
16023 H 6.475589474958525 103.29396457970554 65.3194894578474 H 0.0 **** 0.06
16024 H 4.7633267996512245 102.80437744217741 65.32826614699894 H 0.0 **** 0.06
16025 H 5.196396938559303 104.5306461440176 65.38452128396665 H 0.0 **** 0.06
16026 C 3.0047522465189616 105.83267084827312 69.55242797562076 C 0.0 **** -0.24
16027 H 3.363661020473401 104.81459413989866 69.70732819697449 H 0.0 **** 0.06
16028 H 2.4926016218183236 105.8940991320993 68.59215092390005 H 0.0 **** 0.06
16029 H 3.8506617165177346 106.52040300093141 69.55952641967005 H 0.0 **** 0.06
16030 H 2.3129166673339796 106.09884450040275 70.35159305736934 H 0.0 **** 0.06
16031 C 23.81681171214248 96.40048042202164 54.385860185817535 C 0.0 **** -0.24
16032 H 24.823752939172664 96.8074381027593 54.292975729484226 H 0.0 **** 0.06
16033 H 23.827144580471696 95.34363085636653 54.11924635374788 H 0.0 **** 0.06
16034 H 23.144847215494508 96.93878309901652 53.717522962761905 H 0.0 **** 0.06
16035 H 23.474466193909336 96.51303677014869 55.414826827951345 H 0.0 **** 0.06
16036 C 110.71130670065557 111.12245240401083 70.84948822552022 C 0.0 **** -0.24
16037 H 111.33021175714454 112.0087373869581 70.99122811285979 H 0.0 **** 0.06
16038 H 110.10082971612931 111.24585687591039 69.95435250817964 H 0.0 **** 0.06
16039 H 110.06310515163267 110.99009758843712 71.71594923426983 H 0.0 **** 0.06
16040 H 111.35097425846504 110.24719820620001 70.73561014299342 H 0.0 **** 0.06
16041 C 67.44101275968167 40.099804071857086 104.19658250629271 C 0.0 **** -0.24
16042 H 67.90899325201012 40.925249691077795 103.66018107540997 H 0.0 **** 0.06
16043 H 68.20609424657113 39.53013960966744 104.7250344729227 H 0.0 **** 0.06
16044 H 66.9292303012298 39.44963934470046 103.48799082085887 H 0.0 **** 0.06
16045 H 66.72083086655864 40.49505650666115 104.91332464099114 H 0.0 **** 0.06
16046 C 75.48476680123719 30.534183679515024 40.34729895676435 C 0.0 **** -0.24
16047 H 76.05856326240492 31.367979221987582 39.94205908660746 H 0.0 **** 0.06
16048 H 75.81316499037078 29.606202754206237 39.878543399863645 H 0.0 **** 0.06
16049 H 74.4250617960212 30.68892822325145 40.14307319102687 H 0.0 **** 0.06
16050 H 75.64280391595398 30.473144480032346 41.42429859550106 H 0.0 **** 0.06
16051 C 40.740400749718475 29.306054757570536 28.27934710517883 C 0.0 **** -0.24
16052 H 40.89682644523151 28.266114424633173 28.567752839327397 H 0.0 **** 0.06
16053 H 41.321586355742994 29.956038294987195 28.93246679617846 H 0.0 **** 0.06
16054 H 39.68159150077119 29.552084678906084 28.367851517385418 H 0.0 **** 0.06
16055 H 41.06027847398437 29.447885899786286 27.246512687802465 H 0.0 **** 0.06
16056 C 26.90146325130229 54.40666838343344 95.17596831188456 C 0.0 **** -0.24
16057 H 26.99240856333489 54.05825925211684 94.14781333200114 H 0.0 **** 0.06
16058 H 27.631280760674997 53.89101601526471 95.80038945421683 H 0.0 **** 0.06
16059 H 25.896516038356083 54.19722673845098 95.54313997510252 H 0.0 **** 0.06
16060 H 27.08585638691534 55.48109807499611 95.21397896723767 H 0.0 **** 0.06
16061 C 104.9991694666931 33.41927587918315 104.94299859689393 C 0.0 **** -0.24
16062 H 104.51110949313448 32.77998848507974 105.67900323231375 H 0.0 **** 0.06
16063 H 105.51661147837095 34.23139362688278 105.45473611947874 H 0.0 **** 0.06
16064 H 104.25043985591961 33.83294726264978 104.26726738119861 H 0.0 **** 0.06
16065 H 105.71856163887662 32.83189546254579 104.37247966462432 H 0.0 **** 0.06
16066 C 103.88625732482512 41.22806081849109 111.57710419668587 C 0.0 **** -0.24
16067 H 104.48913386861692 41.91795734775429 110.98550684311299 H 0.0 **** 0.06
16068 H 104.39666724849317 41.01428925943036 112.51638006477107 H 0.0 **** 0.06
16069 H 103.74410514897161 40.30194013069578 111.0215127492791 H 0.0 **** 0.06
16070 H 102.91630153929519 41.68062692575521 111.78494894340122 H 0.0 **** 0.06
16071 C 21.03833974287909 83.93405211541611 10.714364053794842 C 0.0 **** -0.24
16072 H 21.24392292430207 84.55940181265493 11.584013465883196 H 0.0 **** 0.06
16073 H 21.060915872749035 82.88520599813373 11.007936491843587 H 0.0 **** 0.06
16074 H 21.795729881702016 84.114955325985 9.951245487665702 H 0.0 **** 0.06
16075 H 20.054504630623057 84.1803009663391 10.31509637909064 H 0.0 **** 0.06
16076 C 122.48122865028007 67.8633046984854 72.82700105028772 C 0.0 **** -0.24
16077 H 122.38975922279661 67.61599994743764 71.76892663811313 H 0.0 **** 0.06
16078 H 123.34568182692118 68.51118712059363 72.97357458708939 H 0.0 **** 0.06
16079 H 122.6103159317271 66.94811074631585 73.40402805360083 H 0.0 **** 0.06
16080 H 121.57991474385275 68.37894109238877 73.158757089483 H 0.0 **** 0.06
16081 C 11.752756450678199 30.441957861824562 21.83870263113704 C 0.0 **** -0.24
16082 H 12.620401669072002 30.84356780919643 22.361190791854426 H 0.0 **** 0.06
16083 H 11.781608365825388 30.751564108436725 20.793878119932174 H 0.0 **** 0.06
16084 H 10.841599958152624 30.81811666910636 22.30416811717606 H 0.0 **** 0.06
16085 H 11.767227721964957 29.352863525456343 21.895666612154173 H 0.0 **** 0.06
16086 C 121.71353208362984 1.8418408186443571 47.796195094157 C 0.0 **** -0.24
16087 H 121.75169392851654 1.54412753187502 46.74787823806548 H 0.0 **** 0.06
16088 H 120.88601841185897 1.3308260250515929 48.288087052322055 H 0.0 **** 0.06
16089 H 121.5677413445124 2.9200451690085885 47.8620900662053 H 0.0 **** 0.06
16090 H 122.6504942701726 1.570947694034757 48.283778453416545 H 0.0 **** 0.06
16091 C 86.8042390443834 64.31939265929603 110.86734228365331 C 0.0 **** -0.24
16092 H 86.98584311232025 63.483600508134984 110.1910389543783 H 0.0 **** 0.06
16093 H 87.53158205206893 64.29532015681325 111.67795087928941 H 0.0 **** 0.06
16094 H 85.7974320271868 64.24042826494848 111.27870467364045 H 0.0 **** 0.06
16095 H 86.8998526172187 65.25683007061477 110.31943457856809 H 0.0 **** 0.06
16096 C 108.37680541431803 59.844769473543266 1.4158736244180385 C 0.0 **** -0.24
16097 H 107.57857521351207 59.9695062212663 2.147888667150049 H 0.0 **** 0.06
16098 H 109.31596360787046 59.64918886880699 1.9332350188973528 H 0.0 **** 0.06
16099 H 108.46983536389996 60.75380519046266 0.8218625240518467 H 0.0 **** 0.06
16100 H 108.14035551962957 59.004596640962575 0.761874510169541 H 0.0 **** 0.06
16101 C 11.970184408996715 103.0418795121384 122.08238413325576 C 0.0 **** -0.24
16102 H 11.354035166902094 102.16699210128394 122.28882495895026 H 0.0 **** 0.06
16103 H 12.234504733876634 103.05897381596884 121.02453191436143 H 0.0 **** 0.06
16104 H 12.878374506325912 102.99634403080555 122.68223152959811 H 0.0 **** 0.06
16105 H 11.413682187013961 103.94520984561217 122.3329581009371 H 0.0 **** 0.06
16106 C 121.47630474703212 102.41791858328682 73.92481932038541 C 0.0 **** -0.24
16107 H 120.86947360641446 103.32048733811908 73.85600587533611 H 0.0 **** 0.06
16108 H 122.03470663468008 102.28394117631527 72.99852882821239 H 0.0 **** 0.06
16109 H 120.82919251266011 101.55566522338532 74.08683977304975 H 0.0 **** 0.06
16110 H 122.17179222200477 102.51111178981282 74.75878448384026 H 0.0 **** 0.06
16111 C 95.36712622525704 77.94913042479394 103.03950015163474 C 0.0 **** -0.24
16112 H 95.7413326725569 77.22495234070138 102.31550956295362 H 0.0 **** 0.06
16113 H 94.52411310757498 77.51846567839463 103.58004198981604 H 0.0 **** 0.06
16114 H 95.04362421872497 78.8501037124449 102.51830221307182 H 0.0 **** 0.06
16115 H 96.1601680793558 78.20098767687946 103.74350387471765 H 0.0 **** 0.06
16116 C 67.43145881212223 87.76915336446983 90.26532336557335 C 0.0 **** -0.24
16117 H 68.03676179930686 86.91019604798403 89.97338433034126 H 0.0 **** 0.06
16118 H 66.40522055515946 87.44616111248988 90.43838900828683 H 0.0 **** 0.06
16119 H 67.44964545170421 88.51368961177612 89.46976965831045 H 0.0 **** 0.06
16120 H 67.8355594776859 88.20399913911524 91.17898876470692 H 0.0 **** 0.06
16121 C 90.00628512825637 96.04165306478741 20.395487714583396 C 0.0 **** -0.24
16122 H 89.1579362735057 96.00810755206857 19.71135054474007 H 0.0 **** 0.06
16123 H 90.67224398982108 96.85546021139984 20.10842424683142 H 0.0 **** 0.06
16124 H 90.54553125812521 95.09622374992925 20.350159437596744 H 0.0 **** 0.06
16125 H 89.64584099704126 96.20671466298188 21.41167642511988 H 0.0 **** 0.06
16126 C 7.63112790270759 3.1814576693366803 12.540443442166861 C 0.0 **** -0.24
16127 H 7.2788628628070455 3.043383564291858 11.518382498738617 H 0.0 **** 0.06
16128 H 6.892333509398355 2.7853787762672084 13.236533964710475 H 0.0 **** 0.06
16129 H 7.778975604990137 4.244520308209303 12.732653308986471 H 0.0 **** 0.06
16130 H 8.57578178238623 2.6541052352273766 12.67208366676573 H 0.0 **** 0.06
16131 C 76.60438913510701 34.17848126295263 88.55516656809141 C 0.0 **** -0.24
16132 H 77.4191078168374 34.88892463219918 88.41601778897657 H 0.0 **** 0.06
16133 H 76.97335963895362 33.30336263397004 89.08981116428843 H 0.0 **** 0.06
16134 H 76.21912949572726 33.873969140827114 87.58176474206738 H 0.0 **** 0.06
16135 H 75.80675280546829 34.647970873342274 89.13156273390227 H 0.0 **** 0.06
16136 C 30.077856427930485 55.69229617119021 71.24239963296401 C 0.0 **** -0.24
16137 H 30.22945898022772 54.624334911112214 71.08248974134546 H 0.0 **** 0.06
16138 H 30.857100984280038 56.07518135086991 71.90119668319784 H 0.0 **** 0.06
16139 H 29.101832256129626 55.85454988557365 71.70043706581828 H 0.0 **** 0.06
16140 H 30.12142552286477 56.212728851752445 70.28631428177886 H 0.0 **** 0.06
16141 C 15.974599380174965 34.12799732875621 48.8647039880843 C 0.0 **** -0.24
16142 H 16.020499046713553 33.5549143334118 47.93877213517396 H 0.0 **** 0.06
16143 H 15.132031326813575 33.78286073837097 49.46395061371925 H 0.0 **** 0.06
16144 H 15.846629865959699 35.18534052347019 48.63154543287473 H 0.0 **** 0.06
16145 H 16.899237281213004 33.98887371977207 49.424547770569035 H 0.0 **** 0.06
16146 C 5.68821901236106 66.99937528518781 90.21833283652995 C 0.0 **** -0.24
16147 H 6.105176675000507 66.89507187365015 89.21735294790454 H 0.0 **** 0.06
16148 H 5.444462434834605 66.01392543426877 90.61542858728649 H 0.0 **** 0.06
16149 H 4.783413120446426 67.60651539195496 90.17274814845752 H 0.0 **** 0.06
16150 H 6.417742356617282 67.48279539313053 90.86767278325999 H 0.0 **** 0.06
16151 C 31.899073262898753 72.31777500645738 113.34998320228948 C 0.0 **** -0.24
16152 H 32.07256122106574 72.60438487822388 114.38713816071885 H 0.0 **** 0.06
16153 H 30.94716695456873 72.72987989575581 113.01438124564356 H 0.0 **** 0.06
16154 H 31.872772613374735 71.23111695821434 113.27343106171776 H 0.0 **** 0.06
16155 H 32.7045492845985 72.70710810049778 112.72656209507 H 0.0 **** 0.06
16156 C 104.61960915284386 101.835774262137 19.996940533159147 C 0.0 **** -0.24
16157 H 104.21364124694819 102.55797664974872 20.705648870444634 H 0.0 **** 0.06
16158 H 105.24935610925688 101.12083246616734 20.528461765878717 H 0.0 **** 0.06
16159 H 105.21477507256947 102.35821665350971 19.248665097115918 H 0.0 **** 0.06
16160 H 103.80148660662341 101.30703863571472 19.50770454609642 H 0.0 **** 0.06
16161 C 57.79431249811839 15.401711005744986 50.45332665208818 C 0.0 **** -0.24
16162 H 58.53512551216379 16.07475232898544 50.023507994602966 H 0.0 **** 0.06
16163 H 58.13859080946838 15.056745069888223 51.42879100603989 H 0.0 **** 0.06
16164 H 57.65395383437104 14.54520003490235 49.793179575141096 H 0.0 **** 0.06
16165 H 56.84717667625239 15.93034833920342 50.568257496941726 H 0.0 **** 0.06
16166 C 98.79293807269852 7.30403135019057 0.15327531883312417 C 0.0 **** -0.24
16167 H 97.82188924339853 6.819449045175276 0.05546516580952243 H 0.0 **** 0.06
16168 H 99.55946112432224 6.676281280892113 -0.30117156631999364 H 0.0 **** 0.06
16169 H 99.02042861002026 7.450812801514729 1.2092094921119383 H 0.0 **** 0.06
16170 H 98.76780159382182 8.269862996007532 -0.3508546941709767 H 0.0 **** 0.06
16171 C 74.38389917902596 6.103520338946993 52.43291717762028 C 0.0 **** -0.24
16172 H 75.27598545261824 5.553232783603153 52.73356887556433 H 0.0 **** 0.06
16173 H 74.65820680419533 7.125395180016287 52.173310211472625 H 0.0 **** 0.06
16174 H 73.67134882788746 6.116457444247512 53.258601389916365 H 0.0 **** 0.06
16175 H 73.93096663720361 5.618001843236385 51.569532261250856 H 0.0 **** 0.06
16176 C 22.065628425997602 62.51990808498738 85.31205497105483 C 0.0 **** -0.24
16177 H 20.995184140040465 62.319416647728985 85.2555131054533 H 0.0 **** 0.06
16178 H 22.228636654927868 63.59142525739247 85.42913610148571 H 0.0 **** 0.06
16179 H 22.548903458505038 62.17605006138268 84.39770350957764 H 0.0 **** 0.06
16180 H 22.48882174200139 61.99251080088982 86.16687262477177 H 0.0 **** 0.06
16181 C 75.75417431488316 38.81848908427179 71.61863753054178 C 0.0 **** -0.24
16182 H 75.61118420519597 38.75290483607125 72.696348595919 H 0.0 **** 0.06
16183 H 75.67262078009921 37.82273381997413 71.1801671133276 H 0.0 **** 0.06
16184 H 76.7408980170537 39.22941972364907 71.40662805785479 H 0.0 **** 0.06
16185 H 74.99044728736479 39.46783409309148 71.19019171715806 H 0.0 **** 0.06
16186 C 70.9121529361808 41.48394242386182 10.374588046097244 C 0.0 **** -0.24
16187 H 70.20970066188875 42.2976354223166 10.554469124665673 H 0.0 **** 0.06
16188 H 71.10984130674343 41.40420669985585 9.306036604509956 H 0.0 **** 0.06
16189 H 70.48434585049836 40.5491631808913 10.73680561562989 H 0.0 **** 0.06
16190 H 71.84383036440276 41.6859536289727 10.90344660219128 H 0.0 **** 0.06
16191 C 4.333342605573506 37.51468600594134 17.506223367346603 C 0.0 **** -0.24
16192 H 3.7100949151886766 38.30995147413117 17.098930122503297 H 0.0 **** 0.06
16193 H 5.196243804257364 37.360274323453865 16.858402202756466 H 0.0 **** 0.06
16194 H 3.753210145366154 36.59303319112621 17.564276726170558 H 0.0 **** 0.06
16195 H 4.67298112670548 37.79400222590024 18.503592823523753 H 0.0 **** 0.06
16196 C 102.65437638057298 110.5138304140595 19.357400211662934 C 0.0 **** -0.24
16197 H 102.04677820766639 111.41716196070735 19.289323959150238 H 0.0 **** 0.06
16198 H 103.49461329540779 110.58980972886167 18.666796265806397 H 0.0 **** 0.06
16199 H 102.04697304707341 109.6473424996297 19.098007586720314 H 0.0 **** 0.06
16200 H 103.02880279179661 110.40426168407339 20.374928704737187 H 0.0 **** 0.06
16201 C 34.04357295073846 93.21772865808826 120.32898714697981 C 0.0 **** -0.24
16202 H 35.111785828930444 93.37123868132304 120.17006665405175 H 0.0 **** 0.06
16203 H 33.55864819402912 94.18022262726387 120.48992816611539 H 0.0 **** 0.06
16204 H 33.89482028303048 92.5851946370626 121.20437682380154 H 0.0 **** 0.06
16205 H 33.61270764933539 92.73399611579563 119.45225649440536 H 0.0 **** 0.06
16206 C 83.43916776163843 0.7752489908484108 84.73052747728732 C 0.0 **** -0.24
16207 H 83.13412272999972 -0.16663503051086082 85.18785426713808 H 0.0 **** 0.06
16208 H 82.82658880938209 0.9669880907956099 83.85011234754816 H 0.0 **** 0.06
16209 H 84.48774916083113 0.7127429372756353 84.43811715911175 H 0.0 **** 0.06
16210 H 83.31014797211168 1.5855667633538957 85.44770017718088 H 0.0 **** 0.06
16211 C 103.30141236364932 90.76062431423162 83.73052554218431 C 0.0 **** -0.24
16212 H 104.09268545934219 91.05549552573939 83.04073745525815 H 0.0 **** 0.06
16213 H 102.93502843789258 89.77039702435654 83.46062664405787 H 0.0 **** 0.06
16214 H 102.48367187106771 91.47926699133808 83.6730545484538 H 0.0 **** 0.06
16215 H 103.69545745229229 90.73908755737283 84.7464533592387 H 0.0 **** 0.06
16216 C 113.47936850192804 66.75895956448754 75.21086802651463 C 0.0 **** -0.24
16217 H 112.66262583092748 67.45846332695177 75.38599810962786 H 0.0 **** 0.06
16218 H 113.56509077688582 66.08043041982653 76.05960567659419 H 0.0 **** 0.06
16219 H 114.41111916965667 67.31180590591697 75.09329976043621 H 0.0 **** 0.06
16220 H 113.28003037905313 66.18621047500318 74.30595177487479 H 0.0 **** 0.06
16221 C 69.20096498163288 68.86794407378821 102.11756999311905 C 0.0 **** -0.24
16222 H 68.41024010314942 69.58580888082446 101.89723831793873 H 0.0 **** 0.06
16223 H 69.85302925564119 69.27326781325334 102.8911600304728 H 0.0 **** 0.06
16224 H 69.78146229913 68.67854070564053 101.21516936923291 H 0.0 **** 0.06
16225 H 68.75760191571078 67.93606610603507 102.46653027601127 H 0.0 **** 0.06
16226 C 50.77331572315907 120.84756852590988 47.01326315546595 C 0.0 **** -0.24
16227 H 50.669191389331615 119.78535083187799 46.78873814839494 H 0.0 **** 0.06
16228 H 51.68305928363006 121.00859409284425 47.592907189031735 H 0.0 **** 0.06
16229 H 49.911297137131385 121.18287698988487 47.588992986041774 H 0.0 **** 0.06
16230 H 50.830956822253654 121.41140967977893 46.08294961155832 H 0.0 **** 0.06
16231 C 109.9398157143301 31.98291197266505 68.40157812011964 C 0.0 **** -0.24
16232 H 110.98474656500665 32.11970253434873 68.12178961434623 H 0.0 **** 0.06
16233 H 109.80919163722251 32.246117364400874 69.45198235867187 H 0.0 **** 0.06
16234 H 109.656283206497 30.94103416202927 68.24970745800684 H 0.0 **** 0.06
16235 H 109.31141066388342 32.62460026447175 67.784663304616 H 0.0 **** 0.06
16236 C 61.334616019137954 91.71135185158985 27.231717656386493 C 0.0 **** -0.24
16237 H 61.46896578575442 92.66503886061372 27.741855794931325 H 0.0 **** 0.06
16238 H 60.51921845509756 91.16045725432 27.701792893001894 H 0.0 **** 0.06
16239 H 62.254240506953636 91.12993494850136 27.302165695902843 H 0.0 **** 0.06
16240 H 61.09670184475134 91.8897594565922 26.183180930153 H 0.0 **** 0.06
16241 C 6.765657953966041 28.482406602582387 8.42087293937169 C 0.0 **** -0.24
16242 H 7.400067403381769 29.268426795580773 8.012043416848911 H 0.0 **** 0.06
16243 H 7.3391669615729995 27.559159658839363 8.502378751775794 H 0.0 **** 0.06
16244 H 5.913111649046641 28.324021405257618 7.760675531694972 H 0.0 **** 0.06
16245 H 6.4110142161887325 28.77870256699604 9.408354209527857 H 0.0 **** 0.06
16246 C 63.607764480730836 118.41194272932741 103.88985636695506 C 0.0 **** -0.24
16247 H 63.550006039707654 117.80415413431608 104.79283681751633 H 0.0 **** 0.06
16248 H 63.951015491552454 119.41426414351294 104.14796155120169 H 0.0 **** 0.06
16249 H 62.62107962837318 118.47270871487792 103.42976588870104 H 0.0 **** 0.06
16250 H 64.30814620135845 117.95610949717809 103.18910085661193 H 0.0 **** 0.06
16251 C 18.078164075042096 119.01154883770768 4.841526771612564 C 0.0 **** -0.24
16252 H 18.803676198603082 119.15487813357225 4.040434012617524 H 0.0 **** 0.06
16253 H 17.166563737284246 118.57577601019824 4.43164676767735 H 0.0 **** 0.06
16254 H 17.848055989362514 119.9742240780713 5.298253569341185 H 0.0 **** 0.06
16255 H 18.49483713767491 118.34265839559531 5.5937792416658 H 0.0 **** 0.06
16256 C 15.480006054319915 66.28974266778827 22.996384348541696 C 0.0 **** -0.24
16257 H 15.778826265561747 65.98853332349792 23.999710837431095 H 0.0 **** 0.06
16258 H 14.39243999080577 66.27676389970635 22.921971058319265 H 0.0 **** 0.06
16259 H 15.902643499872568 65.59832086643227 22.26807250814487 H 0.0 **** 0.06
16260 H 15.845717384941224 67.29737480104576 22.796650876707282 H 0.0 **** 0.06
16261 C 46.114352660688525 122.30651303176572 30.545300658472883 C 0.0 **** -0.24
16262 H 45.97906126611343 123.08294642527821 29.79162155627276 H 0.0 **** 0.06
16263 H 45.47577122494661 122.5183987424209 31.403379296889867 H 0.0 **** 0.06
16264 H 47.15702300405195 122.28767686353697 30.862159382337552 H 0.0 **** 0.06
16265 H 45.84500193003473 121.3387269815319 30.12184809709686 H 0.0 **** 0.06
16266 C 31.98852105544671 32.47736312860718 8.954114939347903 C 0.0 **** -0.24
16267 H 31.469623225088924 31.867295594841607 9.693750237421796 H 0.0 **** 0.06
16268 H 32.6045075871545 31.83657445180401 8.322884242287387 H 0.0 **** 0.06
16269 H 32.62151718129513 33.20358361427793 9.462351425452425 H 0.0 **** 0.06
16270 H 31.25709076050407 33.00092704874882 8.337271091325817 H 0.0 **** 0.06
16271 C 55.827113816479624 123.53175025478339 115.01976339657688 C 0.0 **** -0.24
16272 H 56.344071225873094 124.2252153138229 115.68291869189608 H 0.0 **** 0.06
16273 H 55.063406788576586 122.99358315556378 115.58142652384343 H 0.0 **** 0.06
16274 H 56.544530290620244 122.82108758868284 114.60723220791273 H 0.0 **** 0.06
16275 H 55.35850001533072 124.08655778129074 114.2067871154062 H 0.0 **** 0.06
16276 C 88.52311100878816 81.40338170895532 8.267039509533106 C 0.0 **** -0.24
16277 H 87.99481524265244 81.85196537543519 9.10844190692029 H 0.0 **** 0.06
16278 H 88.46911864516588 80.31661525854658 8.342148066011816 H 0.0 **** 0.06
16279 H 89.56716557227313 81.71738155811803 8.28444398129841 H 0.0 **** 0.06
16280 H 88.06155774500738 81.72718184061426 7.334023013253727 H 0.0 **** 0.06
16281 C 36.049345513901415 85.43615151997136 94.12115136795806 C 0.0 **** -0.24
16282 H 35.95439624013716 85.15158548943339 93.07270033052863 H 0.0 **** 0.06
16283 H 35.265533701354855 86.14829356588669 94.37686877344507 H 0.0 **** 0.06
16284 H 37.02514424429609 85.89376338464535 94.28660218369241 H 0.0 **** 0.06
16285 H 35.95292499378371 84.54888263198939 94.74789675312611 H 0.0 **** 0.06
16286 C 86.95835061656057 93.82626108953782 29.35481114141342 C 0.0 **** -0.24
16287 H 86.57922956273909 94.14012768645448 28.382696103267847 H 0.0 **** 0.06
16288 H 88.0463433394982 93.8996825898156 29.36135957628511 H 0.0 **** 0.06
16289 H 86.66103522054661 92.79464314851518 29.5454803144234 H 0.0 **** 0.06
16290 H 86.54570042743907 94.47275365354092 30.130063974167285 H 0.0 **** 0.06
16291 C 30.622912898204135 92.43477345491581 97.33834752671069 C 0.0 **** -0.24
16292 H 30.59181457537619 93.26121447422817 98.0484178378027 H 0.0 **** 0.06
16293 H 30.803982194321634 92.82434494218492 96.33671702697555 H 0.0 **** 0.06
16294 H 29.671350564657217 91.90524686596066 97.35638420404423 H 0.0 **** 0.06
16295 H 31.425203343538925 91.75024886147403 97.61268636348657 H 0.0 **** 0.06
16296 C 45.497140443907824 33.051384987198844 42.55656197123672 C 0.0 **** -0.24
16297 H 45.4868329596365 32.07573036296964 42.06990854569686 H 0.0 **** 0.06
16298 H 45.469536274760856 33.83578269324221 41.79994253071626 H 0.0 **** 0.06
16299 H 46.4050274533908 33.15088478289255 43.1508940648645 H 0.0 **** 0.06
16300 H 44.62581506507149 33.14136439475766 43.20563479006595 H 0.0 **** 0.06
16301 C 32.00978691269057 108.8849502345854 4.1268188297867425 C 0.0 **** -0.24
16302 H 31.38095667798882 109.6207825061496 4.628951441733591 H 0.0 **** 0.06
16303 H 33.0307381792793 109.2620486488214 4.064617374914391 H 0.0 **** 0.06
16304 H 31.626438914019786 108.70298807061312 3.1233061311588415 H 0.0 **** 0.06
16305 H 32.00100690022589 107.95334104500165 4.694086866538456 H 0.0 **** 0.06
16306 C 49.772905276587466 68.01484934358871 41.54594524865996 C 0.0 **** -0.24
16307 H 48.72088243501119 68.14540329665306 41.29101516050966 H 0.0 **** 0.06
16308 H 49.90609433658594 67.06301070028275 42.061557174754 H 0.0 **** 0.06
16309 H 50.09220647756666 68.82905570580834 42.19662524589958 H 0.0 **** 0.06
16310 H 50.370884395383484 68.02268767771272 40.634486935380636 H 0.0 **** 0.06
16311 C 40.673899784155566 51.729415216157406 112.2243792920373 C 0.0 **** -0.24
16312 H 40.8005096337052 50.96426474125042 111.45913661871307 H 0.0 **** 0.06
16313 H 41.59402124735684 51.8219251472911 112.80268041922201 H 0.0 **** 0.06
16314 H 39.85433734671742 51.44972202914451 112.88644110678302 H 0.0 **** 0.06
16315 H 40.44644941767405 52.68396469203759 111.74936628254918 H 0.0 **** 0.06
16316 C 72.27753323480768 60.54870138714419 62.0952765652125 C 0.0 **** -0.24
16317 H 72.58944601331656 61.44141594614638 62.63612383478828 H 0.0 **** 0.06
16318 H 71.69782856338088 60.83866077387944 61.21834338019784 H 0.0 **** 0.06
16319 H 71.66416753869143 59.9252823275058 62.746411686235675 H 0.0 **** 0.06
16320 H 73.15799060647403 59.98833712034076 61.78075563733687 H 0.0 **** 0.06
16321 C 39.894667802929234 52.13820607206581 39.95335607609124 C 0.0 **** -0.24
16322 H 39.189824554516576 51.92897443388847 39.149112465237295 H 0.0 **** 0.06
16323 H 40.83551980249038 52.490307518797295 39.52973853458519 H 0.0 **** 0.06
16324 H 40.071458028673334 51.22829116738117 40.52711979539484 H 0.0 **** 0.06
16325 H 39.48101852749417 52.905593212020335 40.60785357418564 H 0.0 **** 0.06
16326 C 28.471571885525805 79.27067218862024 76.92798220753451 C 0.0 **** -0.24
16327 H 28.5793714506556 78.6697236759018 76.02492913346487 H 0.0 **** 0.06
16328 H 28.085416608386083 78.6477559594126 77.7344114644502 H 0.0 **** 0.06
16329 H 27.778191805356542 80.08996104198575 76.73792551122796 H 0.0 **** 0.06
16330 H 29.442941278122817 79.6750609961713 77.21375123557772 H 0.0 **** 0.06
16331 C 75.35624213099547 99.66088493631075 110.95177393702686 C 0.0 **** -0.24
16332 H 76.30397669675835 99.19102135634189 111.21725498823132 H 0.0 **** 0.06
16333 H 75.54201458184505 100.4872955005378 110.26473466795896 H 0.0 **** 0.06
16334 H 74.87351557050883 100.03779895932426 111.85238289286684 H 0.0 **** 0.06
16335 H 74.70898894910752 98.9270179929236 110.4715423929458 H 0.0 **** 0.06
16336 C 34.59196237279838 27.01293176665149 68.92956912154193 C 0.0 **** -0.24
16337 H 35.07298124199866 27.924312016043075 69.28506822147058 H 0.0 **** 0.06
16338 H 34.24835900337109 27.15849738141577 67.90512433652198 H 0.0 **** 0.06
16339 H 33.740225010031224 26.77919863544753 69.56915809276572 H 0.0 **** 0.06
16340 H 35.3055110550024 26.189423090180696 68.96007244613075 H 0.0 **** 0.06
16341 C 8.422394983268173 60.27964542974638 100.39396859105807 C 0.0 **** -0.24
16342 H 7.586372039913744 60.80309312396895 100.85838422826183 H 0.0 **** 0.06
16343 H 8.118369159835424 59.264882260116394 100.13784811611333 H 0.0 **** 0.06
16344 H 9.260504485641551 60.24406790327748 101.0902468614708 H 0.0 **** 0.06
16345 H 8.724188543233343 60.80809616323137 99.4886519199855 H 0.0 **** 0.06
16346 C 70.17551722003581 81.96718288738606 97.64511924978316 C 0.0 **** -0.24
16347 H 69.34375925179103 82.59773780733343 97.96027146147992 H 0.0 **** 0.06
16348 H 70.36121933920589 82.11597036811307 96.58085669824678 H 0.0 **** 0.06
16349 H 69.92828633426939 80.92195988349116 97.82866876773537 H 0.0 **** 0.06
16350 H 71.06773485443298 82.23398522524835 98.21059325727978 H 0.0 **** 0.06
16351 C 59.01413307430721 76.39118815127611 20.414396048326466 C 0.0 **** -0.24
16352 H 59.61929476701107 75.60248460078112 20.863528371370393 H 0.0 **** 0.06
16353 H 58.020211754329324 76.00362353997522 20.18966995983604 H 0.0 **** 0.06
16354 H 59.48876063818969 76.73297240459682 19.49499849117555 H 0.0 **** 0.06
16355 H 58.93041456920258 77.22486009604454 21.112166103774996 H 0.0 **** 0.06
16356 C 95.83618611522434 35.53571029745055 104.43956588356906 C 0.0 **** -0.24
16357 H 96.12904436472922 36.23430580331596 105.2242410697358 H 0.0 **** 0.06
16358 H 96.6827353802476 34.89737669971092 104.18786917548402 H 0.0 **** 0.06
16359 H 95.52522927149306 36.092811417123556 103.55567114841438 H 0.0 **** 0.06
16360 H 95.00786325746287 34.92109364883544 104.79168278539458 H 0.0 **** 0.06
16361 C 50.5334556682065 108.23222001979258 76.91035692484027 C 0.0 **** -0.24
16362 H 51.230734587166836 107.43270753900244 76.65884223312611 H 0.0 **** 0.06
16363 H 49.64074054913621 108.14312303089342 76.29071090544434 H 0.0 **** 0.06
16364 H 51.006426403291584 109.19710347798605 76.72892573407094 H 0.0 **** 0.06
16365 H 50.256473259811486 108.1539597218439 77.96101229372996 H 0.0 **** 0.06
16366 C 57.447499675112226 99.69581912909439 98.8839103568564 C 0.0 **** -0.24
16367 H 57.02857131289173 98.81787636663347 98.39147124731392 H 0.0 **** 0.06
16368 H 56.641775771563516 100.2847856459407 99.32262229406774 H 0.0 **** 0.06
16369 H 57.983750991155276 100.30101903214432 98.15213349450886 H 0.0 **** 0.06
16370 H 58.13548727862954 99.37892261995191 99.66732233904764 H 0.0 **** 0.06
16371 C 36.849360650785385 30.76572762953049 77.96919739101716 C 0.0 **** -0.24
16372 H 37.19115829437655 30.08641982705808 77.18901989439804 H 0.0 **** 0.06
16373 H 37.63740381820305 31.484460939769235 78.19539893210307 H 0.0 **** 0.06
16374 H 36.60750447297664 30.196011944338125 78.86588645740346 H 0.0 **** 0.06
16375 H 35.9612222076874 31.295654750946994 77.62556526630544 H 0.0 **** 0.06
16376 C 117.10715587060989 39.766939541476404 2.56011463442546 C 0.0 **** -0.24
16377 H 117.18860569348263 38.68005370901487 2.5639634649503904 H 0.0 **** 0.06
16378 H 116.05659978818899 40.05196955459536 2.5010000627534055 H 0.0 **** 0.06
16379 H 117.64209644051397 40.167947621371994 1.699067116553465 H 0.0 **** 0.06
16380 H 117.54059657296251 40.167352076500244 3.4769617887164372 H 0.0 **** 0.06
16381 C 69.12676771304726 101.79854112961351 108.57701036262603 C 0.0 **** -0.24
16382 H 69.25890746550218 102.17611497119813 107.56322746196257 H 0.0 **** 0.06
16383 H 68.22790549468985 102.23508203977906 109.01226941906982 H 0.0 **** 0.06
16384 H 69.99331359992746 102.0709125692339 109.18043209826087 H 0.0 **** 0.06
16385 H 69.02893961035797 100.7137210586898 108.5506147295116 H 0.0 **** 0.06
16386 C 87.32520554571173 108.13172160913888 84.54672854822662 C 0.0 **** -0.24
16387 H 86.92057777271715 109.12745860335288 84.36577025691726 H 0.0 **** 0.06
16388 H 88.40847572552298 108.19460017238535 84.6564362684524 H 0.0 **** 0.06
16389 H 87.08164014774464 107.4820124978457 83.70657461476927 H 0.0 **** 0.06
16390 H 86.89053396034728 107.72317669063648 85.45897268552578 H 0.0 **** 0.06
16391 C 50.27974919441576 72.3929712382953 65.96531384150273 C 0.0 **** -0.24
16392 H 51.36326118604393 72.50106862430565 65.92733524455235 H 0.0 **** 0.06
16393 H 50.02429336488012 71.34557938469524 66.12941865873819 H 0.0 **** 0.06
16394 H 49.84805691404986 72.72895470651238 65.02213483928602 H 0.0 **** 0.06
16395 H 49.88338531268931 72.99628223766783 66.78236662343465 H 0.0 **** 0.06
16396 C 71.74608507894965 56.97714144724364 108.14909044918896 C 0.0 **** -0.24
16397 H 71.96027676103523 56.74688849488015 107.10568871428798 H 0.0 **** 0.06
16398 H 71.84475074094956 58.05132045437861 108.31080730997688 H 0.0 **** 0.06
16399 H 72.45050956740334 56.44742678075343 108.79007890186287 H 0.0 **** 0.06
16400 H 70.72950888588866 56.66500540892176 108.38869356499157 H 0.0 **** 0.06
16401 C 1.634673883863833 104.54961825666851 87.19443971403415 C 0.0 **** -0.24
16402 H 0.821177827690029 105.15099037093046 86.787369070309 H 0.0 **** 0.06
16403 H 1.4619376478538477 104.37768709722513 88.25720573597457 H 0.0 **** 0.06
16404 H 2.578834084218208 105.07769910169316 87.0603320913823 H 0.0 **** 0.06
16405 H 1.6753431538522534 103.5933778214112 86.67222713035412 H 0.0 **** 0.06
16406 C 4.1908799142522355 45.94213402256989 2.0180124400700805 C 0.0 **** -0.24
16407 H 5.0900841012912394 45.328640267613096 1.9609952970270967 H 0.0 **** 0.06
16408 H 3.52546076109212 45.6883553419291 1.193561486554529 H 0.0 **** 0.06
16409 H 4.464987273076986 46.99500524802449 1.9536771470832406 H 0.0 **** 0.06
16410 H 3.683678191924315 45.75625145584199 2.965378713485393 H 0.0 **** 0.06
16411 C 41.60230503325562 18.891156061704237 55.850616872257746 C 0.0 **** -0.24
16412 H 41.98051775329293 19.012564860032484 56.865478305713225 H 0.0 **** 0.06
16413 H 40.520525968199024 18.760378163707855 55.87905814210123 H 0.0 **** 0.06
16414 H 42.063391982867586 18.014882694927365 55.39394678677989 H 0.0 **** 0.06
16415 H 41.84546233725456 19.777475654635822 55.263697909737886 H 0.0 **** 0.06
16416 C 77.91136199633509 65.73621874981566 47.230010089060926 C 0.0 **** -0.24
16417 H 77.75565181010408 64.69607475930252 47.51616480257877 H 0.0 **** 0.06
16418 H 77.54098049275005 66.38956472900546 48.02120626192789 H 0.0 **** 0.06
16419 H 77.37273628990914 65.94317482929208 46.305340294422194 H 0.0 **** 0.06
16420 H 78.97584345129799 65.91507654211986 47.07831687803662 H 0.0 **** 0.06
16421 C 37.25760387885791 70.71250613087653 25.705371789594196 C 0.0 **** -0.24
16422 H 37.00070524549818 70.79383577787594 24.64891387723062 H 0.0 **** 0.06
16423 H 38.2957071613082 71.01258060103292 25.850187621188574 H 0.0 **** 0.06
16424 H 37.12870050392431 69.68075187628754 26.03226898957957 H 0.0 **** 0.06
16425 H 36.605981449889754 71.36307051712458 26.288894633593692 H 0.0 **** 0.06
16426 C 10.313240310928478 73.73174141723604 74.81797819626402 C 0.0 **** -0.24
16427 H 10.093394133248722 74.79948625860186 74.82330145153757 H 0.0 **** 0.06
16428 H 10.192040188342517 73.34072398206837 73.80698379070344 H 0.0 **** 0.06
16429 H 9.628027110529047 73.21737630744286 75.49237952630789 H 0.0 **** 0.06
16430 H 11.339347737827907 73.57113765244719 75.15018857730736 H 0.0 **** 0.06
16431 C 119.58741568831405 28.51146931293397 122.83694272098417 C 0.0 **** -0.24
16432 H 119.72560525724316 29.58651669585572 122.72895481504432 H 0.0 **** 0.06
16433 H 118.88188117482065 28.31428387225253 123.64407075301123 H 0.0 **** 0.06
16434 H 120.54508123853878 28.04374835967596 123.0684909575187 H 0.0 **** 0.06
16435 H 119.19900592523206 28.100470465227062 121.90498428718708 H 0.0 **** 0.06
16436 C 102.02838838865515 69.0051104793381 32.59689671974505 C 0.0 **** -0.24
16437 H 101.96846144341188 68.35614733636979 33.47033377093646 H 0.0 **** 0.06
16438 H 101.06787544968569 69.01197564185739 32.082919676393274 H 0.0 **** 0.06
16439 H 102.80025825189726 68.63481262662856 31.92236494841697 H 0.0 **** 0.06
16440 H 102.27860911038212 70.01755144225297 32.91377775713747 H 0.0 **** 0.06
16441 C 14.667851886350832 60.08071599159979 82.74442534396788 C 0.0 **** -0.24
16442 H 14.534841484162143 59.62063480768279 81.76546046989138 H 0.0 **** 0.06
16443 H 13.692417823703295 60.31460687850111 83.1708290773556 H 0.0 **** 0.06
16444 H 15.248904182626177 60.99649038993391 82.63961531731233 H 0.0 **** 0.06
16445 H 15.194806967541012 59.38896321941823 83.40212222504617 H 0.0 **** 0.06
16446 C 113.5244654565401 122.07351785097471 38.651457163604405 C 0.0 **** -0.24
16447 H 113.27202322904691 122.87431273419392 37.95638149483386 H 0.0 **** 0.06
16448 H 114.40526652779118 121.54253525461817 38.28922421561771 H 0.0 **** 0.06
16449 H 112.68666070418277 121.37979916973487 38.72586366376845 H 0.0 **** 0.06
16450 H 113.73376729642871 122.49804460203984 39.63358827085247 H 0.0 **** 0.06
16451 C 68.57858584541168 28.36197911382297 113.54103155117714 C 0.0 **** -0.24
16452 H 68.21858953095324 28.63550462868608 112.54875527771776 H 0.0 **** 0.06
16453 H 67.73893047787936 28.029550277810074 114.15186268079164 H 0.0 **** 0.06
16454 H 69.04886823968604 29.226490209977698 114.00862934046161 H 0.0 **** 0.06
16455 H 69.30666726565721 27.555668859781775 113.4531912479818 H 0.0 **** 0.06
16456 C 19.138052186627306 77.41285170949271 56.689181452250196 C 0.0 **** -0.24
16457 H 18.576459158598794 77.78771404709869 55.83408370809288 H 0.0 **** 0.06
16458 H 18.551030087996565 77.55132063723158 57.59765829414479 H 0.0 **** 0.06
16459 H 20.077189350975402 77.9592159208361 56.77587768712861 H 0.0 **** 0.06
16460 H 19.346632844170855 76.35168851472449 56.5493081311772 H 0.0 **** 0.06
16461 C 46.00068775787247 80.30562527083721 83.6050152819835 C 0.0 **** -0.24
16462 H 45.56302026920383 81.16168973671368 84.11916072943252 H 0.0 **** 0.06
16463 H 46.34680584602023 79.57910603494278 84.34023278705658 H 0.0 **** 0.06
16464 H 46.843352636717526 80.63891301091094 82.99880168825102 H 0.0 **** 0.06
16465 H 45.249952999549606 79.8446116233575 82.96346136651384 H 0.0 **** 0.06
16466 C 10.418659821845694 113.69120169115511 22.520408418311632 C 0.0 **** -0.24
16467 H 9.799546555613986 113.27933332743163 21.723021462680208 H 0.0 **** 0.06
16468 H 11.015202657264666 112.89442463064577 22.965859565193483 H 0.0 **** 0.06
16469 H 9.779877077174774 114.13699960189138 23.282861391001518 H 0.0 **** 0.06
16470 H 11.079268554752105 114.454154964726 22.109231956502214 H 0.0 **** 0.06
16471 C 109.99186710521008 77.61526345715748 79.78490810326477 C 0.0 **** -0.24
16472 H 110.18148432604505 77.80438141751952 80.84116819260615 H 0.0 **** 0.06
16473 H 108.96692972404685 77.26836446843888 79.65631135270448 H 0.0 **** 0.06
16474 H 110.68138235218606 76.85298228745765 79.42324139633152 H 0.0 **** 0.06
16475 H 110.13818786469147 78.53536389204257 79.21976733024866 H 0.0 **** 0.06
16476 C 1.9512237916535184 18.82562812261216 27.56908763292401 C 0.0 **** -0.24
16477 H 2.941858145327643 18.37096533732131 27.55027132208744 H 0.0 **** 0.06
16478 H 1.1946952273394231 18.04335064031511 27.64112410388583 H 0.0 **** 0.06
16479 H 1.7967824661807867 19.397848726264783 26.654186448557567 H 0.0 **** 0.06
16480 H 1.872650631962813 19.488826253370462 28.430065658988042 H 0.0 **** 0.06
16481 C 102.74476891865908 118.83123397681547 50.6464151019305 C 0.0 **** -0.24
16482 H 102.9194702438304 119.5372905569842 49.83615765952291 H 0.0 **** 0.06
16483 H 103.25949737160357 119.17361458460209 51.544802495430446 H 0.0 **** 0.06
16484 H 103.1249278258727 117.85027990732667 50.36139752032554 H 0.0 **** 0.06
16485 H 101.67494382068068 118.76280174173917 50.844324199019695 H 0.0 **** 0.06
16486 C 34.19019801267468 71.7982231751702 42.260274895435714 C 0.0 **** -0.24
16487 H 33.792530113915 72.1560259110319 41.31042271401695 H 0.0 **** 0.06
16488 H 34.9999743087867 72.45179378812013 42.58365312145584 H 0.0 **** 0.06
16489 H 34.56839105556262 70.78410839905672 42.136465042258635 H 0.0 **** 0.06
16490 H 33.398311506516855 71.80247863251591 43.01011649684234 H 0.0 **** 0.06
16491 C 32.46861403569309 36.08900322636836 66.4846663047622 C 0.0 **** -0.24
16492 H 31.97346309490922 36.778412878397404 67.16814385212213 H 0.0 **** 0.06
16493 H 33.53741181064285 36.303018361276 66.4637481221902 H 0.0 **** 0.06
16494 H 32.05370710775091 36.209649402280405 65.48327800724174 H 0.0 **** 0.06
16495 H 32.30895498080335 35.06530431546568 66.8233656354002 H 0.0 **** 0.06
16496 C 60.62619470498447 14.81371259727041 84.55036862578751 C 0.0 **** -0.24
16497 H 61.11443874541271 14.134303592498469 85.24886404887509 H 0.0 **** 0.06
16498 H 61.11234117519484 14.745343936829556 83.57709576992087 H 0.0 **** 0.06
16499 H 60.70189968963268 15.834452672675042 84.92443163116502 H 0.0 **** 0.06
16500 H 59.575832201365756 14.539915481621563 84.45219304444957 H 0.0 **** 0.06
16501 C 59.60386463339259 30.830276433528894 52.33337104513981 C 0.0 **** -0.24
16502 H 59.69981950674327 31.436499181050152 53.23419530926776 H 0.0 **** 0.06
16503 H 58.56955684704043 30.50407737054411 52.223051981770766 H 0.0 **** 0.06
16504 H 60.25380972712421 29.958282131627442 52.41155073052863 H 0.0 **** 0.06
16505 H 59.89365475248552 31.42209387415845 51.464942852065406 H 0.0 **** 0.06
16506 C 53.005394090736644 31.343780063102386 117.75860241309141 C 0.0 **** -0.24
16507 H 52.25709483989786 32.099150665671715 117.516752789046 H 0.0 **** 0.06
16508 H 53.34860087445733 31.48873377953379 118.78332836264886 H 0.0 **** 0.06
16509 H 53.84971955643741 31.439007095776518 117.0758755090306 H 0.0 **** 0.06
16510 H 52.566696256377924 30.35117900465002 117.65855224771383 H 0.0 **** 0.06
16511 C 18.04283486124737 99.41155308058791 110.48169332536781 C 0.0 **** -0.24
16512 H 17.08746892462105 98.94945383403689 110.23320003469473 H 0.0 **** 0.06
16513 H 18.746317731085526 98.64308259702767 110.80122836964796 H 0.0 **** 0.06
16514 H 17.89933527555104 100.1317429513727 111.28733539099449 H 0.0 **** 0.06
16515 H 18.436895879198318 99.92401633951812 109.60330269306257 H 0.0 **** 0.06
16516 C 21.634720201131586 15.643883177183397 90.35879458232057 C 0.0 **** -0.24
16517 H 21.17240420279211 15.496201278955255 91.33542488531322 H 0.0 **** 0.06
16518 H 21.27484428635671 14.881810489051645 89.66787401810302 H 0.0 **** 0.06
16519 H 22.717701079927963 15.565482571943733 90.45528540660047 H 0.0 **** 0.06
16520 H 21.37452334729599 16.632257641892522 89.97969270593933 H 0.0 **** 0.06
16521 C 70.23939721726809 50.68262079055279 109.49606204808154 C 0.0 **** -0.24
16522 H 69.74886117464473 50.89724338474571 108.5466220862049 H 0.0 **** 0.06
16523 H 70.80228246401663 49.75295015371418 109.41223832943692 H 0.0 **** 0.06
16524 H 69.4864362353573 50.582517380166536 110.27896489698392 H 0.0 **** 0.06
16525 H 70.91781989857537 51.49749263595646 109.74606240182052 H 0.0 **** 0.06
16526 C 117.99991003136346 114.55037975191254 31.176692926900074 C 0.0 **** -0.24
16527 H 117.68986558671644 113.54608095205015 30.890313811319686 H 0.0 **** 0.06
16528 H 117.35556743236714 115.2818629000414 30.689878095981015 H 0.0 **** 0.06
16529 H 119.03314301764134 114.71321219076674 30.868907387455863 H 0.0 **** 0.06
16530 H 117.9214394915176 114.65915861545926 32.2583117270693 H 0.0 **** 0.06
16531 C 1.6650610593960877 14.17726704446676 66.91202773232207 C 0.0 **** -0.24
16532 H 2.688320450982726 14.543909638200432 66.84127431024793 H 0.0 **** 0.06
16533 H 1.440656103704752 13.927306608386061 67.94985093523346 H 0.0 **** 0.06
16534 H 1.5542476167152355 13.287052566460716 66.29189924848738 H 0.0 **** 0.06
16535 H 0.9765416459839518 14.948168045991224 66.56728823431668 H 0.0 **** 0.06
16536 C 91.302471815525 116.49138076811894 61.37236123723703 C 0.0 **** -0.24
16537 H 92.1105781693991 116.98570915395857 60.83467248970405 H 0.0 **** 0.06
16538 H 90.51417125444561 117.21467277187483 61.586792440659096 H 0.0 **** 0.06
16539 H 91.68500354260797 116.08316699430256 62.308365378112356 H 0.0 **** 0.06
16540 H 90.89930445977802 115.68444157329176 60.76230238246299 H 0.0 **** 0.06
16541 C 56.172036798490495 72.95311936478913 81.52659840665422 C 0.0 **** -0.24
16542 H 56.72256263199597 73.65763024620001 80.90259242193571 H 0.0 **** 0.06
16543 H 55.35840701567302 73.4740283234258 82.03110324076522 H 0.0 **** 0.06
16544 H 56.84384486853527 72.52328097217915 82.269157190177 H 0.0 **** 0.06
16545 H 55.76327999256546 72.15832886030857 80.90236956036964 H 0.0 **** 0.06
16546 C 24.259255136002253 44.77175163248373 12.598663113994707 C 0.0 **** -0.24
16547 H 24.109958156618916 45.78734635668775 12.232501320811991 H 0.0 **** 0.06
16548 H 25.009125554054435 44.77673446732757 13.389964734911416 H 0.0 **** 0.06
16549 H 24.598536935751497 44.13731607772891 11.779350513873137 H 0.0 **** 0.06
16550 H 23.31838658894077 44.38552255013927 12.990844431857074 H 0.0 **** 0.06
16551 C 61.21377483507591 18.072084381574143 118.48551111042494 C 0.0 **** -0.24
16552 H 60.70468552528146 18.327819246782056 119.41488696101372 H 0.0 **** 0.06
16553 H 61.05323747521332 17.017524726627755 118.2629344716845 H 0.0 **** 0.06
16554 H 62.28096475914438 18.264420925138566 118.59132685815473 H 0.0 **** 0.06
16555 H 60.813330767388834 18.681241056974557 117.67450281371204 H 0.0 **** 0.06
16556 C 104.97490897253937 28.414216290248724 37.468872745466484 C 0.0 **** -0.24
16557 H 105.40557826622525 27.807122071685683 36.67302336304259 H 0.0 **** 0.06
16558 H 104.96703010399378 27.84334797406359 38.39751692297497 H 0.0 **** 0.06
16559 H 103.95411495742096 28.690628485451484 37.20300879903134 H 0.0 **** 0.06
16560 H 105.57280759177412 29.31619398241689 37.601043896537135 H 0.0 **** 0.06
16561 C 3.7319094843954623 1.0389923691503782 26.929805875799616 C 0.0 **** -0.24
16562 H 3.166873082327573 0.19444617262391262 27.324646743193213 H 0.0 **** 0.06
16563 H 3.122270852360927 1.575016678839873 26.20154805660418 H 0.0 **** 0.06
16564 H 4.638556804723759 0.6754196626123559 26.447777715636647 H 0.0 **** 0.06
16565 H 3.9981742527500757 1.7097822163269285 27.745686796120964 H 0.0 **** 0.06
16566 C 0.39831923434451255 124.02164808142012 62.509421575633496 C 0.0 **** -0.24
16567 H 0.13387851790218974 123.31412059706062 63.29455125395205 H 0.0 **** 0.06
16568 H -0.5029276507617624 124.33193229106365 61.98037007974287 H 0.0 **** 0.06
16569 H 1.085471090169392 123.54694708756618 61.80935088310065 H 0.0 **** 0.06
16570 H 0.8779424740154127 124.89439960186101 62.953821281733696 H 0.0 **** 0.06
16571 C 120.34595788844042 18.410213292294937 8.063207659695962 C 0.0 **** -0.24
16572 H 119.58562339795768 17.77949229019667 8.524489806687995 H 0.0 **** 0.06
16573 H 120.96395981826335 17.80609289535568 7.399146777657251 H 0.0 **** 0.06
16574 H 120.97026169936139 18.85218556318257 8.839768650608079 H 0.0 **** 0.06
16575 H 119.86207722339498 19.201546389089906 7.490837909352109 H 0.0 **** 0.06
16576 C 15.205475952625534 48.85003058852271 7.2451449320599295 C 0.0 **** -0.24
16577 H 15.012229304433845 49.64855742898595 7.960473701972035 H 0.0 **** 0.06
16578 H 14.385420875602108 48.1324723672879 7.270768618897421 H 0.0 **** 0.06
16579 H 16.137181791268176 48.347816639324094 7.504555916766947 H 0.0 **** 0.06
16580 H 15.286689296876261 49.272117030677634 6.242745204821773 H 0.0 **** 0.06
16581 C 11.937613757484314 82.17214681109661 6.612614461087784 C 0.0 **** -0.24
16582 H 12.17621005529574 81.39633232062266 5.885454669866601 H 0.0 **** 0.06
16583 H 11.023224701621672 81.90464529644859 7.142374135241564 H 0.0 **** 0.06
16584 H 11.793653133154152 83.12179276515019 6.096156649799262 H 0.0 **** 0.06
16585 H 12.757205270188166 82.26686350714903 7.3251018080500785 H 0.0 **** 0.06
16586 C 57.110445600535186 89.77589144215749 49.108564134526176 C 0.0 **** -0.24
16587 H 58.11623918807494 89.41600424910978 48.89073576014563 H 0.0 **** 0.06
16588 H 57.171276356131614 90.71237362872179 49.662158200838235 H 0.0 **** 0.06
16589 H 56.58023589338312 89.03329242469898 49.70525676931197 H 0.0 **** 0.06
16590 H 56.5743276768672 89.94028417994774 48.17274181175202 H 0.0 **** 0.06
16591 C 83.77560761405167 11.560029970043892 22.72063997534417 C 0.0 **** -0.24
16592 H 84.58160472692036 11.523249472399886 21.988869199271903 H 0.0 **** 0.06
16593 H 83.93921734913569 12.395484026522357 23.400517921215 H 0.0 **** 0.06
16594 H 83.75655785946391 10.628423343738984 23.28684748813737 H 0.0 **** 0.06
16595 H 82.82325730082302 11.691398493487892 22.205744873721017 H 0.0 **** 0.06
16596 C 15.08279545018155 105.13377507296649 116.75175653582322 C 0.0 **** -0.24
16597 H 16.02520832610338 104.72313018751109 116.39010556116769 H 0.0 **** 0.06
16598 H 14.764848144772202 104.58673502881831 117.63882945390347 H 0.0 **** 0.06
16599 H 14.324074117355622 105.03941907046594 115.97523508655595 H 0.0 **** 0.06
16600 H 15.21733171578262 106.18571956214228 117.00147324597798 H 0.0 **** 0.06
16601 C 123.02128862347126 65.54601063185265 64.96288994185684 C 0.0 **** -0.24
16602 H 122.28338818933037 65.26637325716908 65.71375045376588 H 0.0 **** 0.06
16603 H 123.01713539972917 66.62887108477236 64.83549395874444 H 0.0 **** 0.06
16604 H 122.7752694905954 65.0676447691858 64.0146460821583 H 0.0 **** 0.06
16605 H 124.01040548764837 65.22210610668195 65.28771825182503 H 0.0 **** 0.06
16606 C 47.82639117088354 50.266144701338476 11.864524719406518 C 0.0 **** -0.24
16607 H 46.765907605360525 50.01190939517204 11.863638387755259 H 0.0 **** 0.06
16608 H 48.11031796770308 50.634359102122346 12.851072999877942 H 0.0 **** 0.06
16609 H 48.01430143956995 51.03955265953883 11.119693479624459 H 0.0 **** 0.06
16610 H 48.412566363961105 49.38038696307737 11.624182332700798 H 0.0 **** 0.06
16611 C 100.57806632805628 109.38067499003787 89.88686363930088 C 0.0 **** -0.24
16612 H 100.68341036104007 109.7774246952113 88.8769225351079 H 0.0 **** 0.06
16613 H 101.26096778358158 108.54128278701447 90.01960422393591 H 0.0 **** 0.06
16614 H 99.55284479849735 109.04326409954633 90.03954441927152 H 0.0 **** 0.06
16615 H 100.81569020239525 110.16087860942245 90.60978403416789 H 0.0 **** 0.06
16616 C 63.439677413265414 48.85758148681538 17.856614839999565 C 0.0 **** -0.24
16617 H 62.98138492101745 48.70216395453514 16.88059946151313 H 0.0 **** 0.06
16618 H 64.50523430522261 49.05554102343143 17.7309909525397 H 0.0 **** 0.06
16619 H 63.305823904137384 47.96423283173527 18.46803385983793 H 0.0 **** 0.06
16620 H 62.96709184869685 49.707626731054006 18.348153895410633 H 0.0 **** 0.06
16621 C 114.42574528995641 89.7336994510976 41.650722045005864 C 0.0 **** -0.24
16622 H 114.85460524308263 89.1632434789496 42.47394848693066 H 0.0 **** 0.06
16623 H 115.22409545993256 90.08041793716257 40.994273245786864 H 0.0 **** 0.06
16624 H 113.88207852768116 90.59208570154448 42.04679434461084 H 0.0 **** 0.06
16625 H 113.74118708708073 89.0992094779935 41.08689999765982 H 0.0 **** 0.06
16626 C 94.82394305344638 77.18095859360588 5.934432508619722 C 0.0 **** -0.24
16627 H 95.31783741117175 76.21624640139939 6.047283807323382 H 0.0 **** 0.06
16628 H 94.69910508629465 77.4030122213895 4.873934298830989 H 0.0 **** 0.06
16629 H 95.43267080332328 77.95685330787836 6.399209499823144 H 0.0 **** 0.06
16630 H 93.84738815907292 77.14797593833742 6.416650660270207 H 0.0 **** 0.06
16631 C 85.86475525495035 75.32636899502813 3.7539683446340213 C 0.0 **** -0.24
16632 H 85.41371512238229 75.54068108929113 4.722932657965757 H 0.0 **** 0.06
16633 H 85.9252046627831 76.2442715861389 3.1701204582456732 H 0.0 **** 0.06
16634 H 85.25267662392295 74.59644553133552 3.2224494905652925 H 0.0 **** 0.06
16635 H 86.86621506012091 74.92133323500832 3.900300207702685 H 0.0 **** 0.06
16636 C 83.2448274706154 86.76084351727945 75.01895931996927 C 0.0 **** -0.24
16637 H 83.63499822068505 86.71461118909258 74.00192141571051 H 0.0 **** 0.06
16638 H 83.98718848190366 86.36159632758296 75.71118515148396 H 0.0 **** 0.06
16639 H 82.33189000925005 86.17032186910802 75.0841819523699 H 0.0 **** 0.06
16640 H 83.02741633750618 87.79711541240704 75.27814781611801 H 0.0 **** 0.06
16641 C 7.347971139575293 17.277887618291288 112.86754612110968 C 0.0 **** -0.24
16642 H 7.659355294656166 17.301025846939012 113.91273621613902 H 0.0 **** 0.06
16643 H 6.949800388257074 16.29162187766508 112.62957629671922 H 0.0 **** 0.06
16644 H 8.206032268734191 17.48869062193654 112.22896807571493 H 0.0 **** 0.06
16645 H 6.578404571993076 18.031208163677547 112.70156685558192 H 0.0 **** 0.06
16646 C 66.61967722232475 37.06969517772033 28.363666056764053 C 0.0 **** -0.24
16647 H 66.58743181896392 36.875547370405336 27.29168958440009 H 0.0 **** 0.06
16648 H 67.58376641969016 36.75356524410603 28.76172959277234 H 0.0 **** 0.06
16649 H 65.82198112093039 36.51248242606352 28.85709558863566 H 0.0 **** 0.06
16650 H 66.48275005231051 38.136097770592265 28.543847034087456 H 0.0 **** 0.06
16651 C 105.81918478711287 72.16427282717801 27.46830430003932 C 0.0 **** -0.24
16652 H 105.38888415629533 73.14006259278149 27.246283292227503 H 0.0 **** 0.06
16653 H 105.27637308042155 71.39470813533492 26.9185458101801 H 0.0 **** 0.06
16654 H 105.74360658467172 71.96851263336548 28.53721566616806 H 0.0 **** 0.06
16655 H 106.86775784534986 72.1530457209267 27.169986971182915 H 0.0 **** 0.06
16656 C 54.3819781913795 98.63680390716344 53.718975008265375 C 0.0 **** -0.24
16657 H 53.51218486566623 99.2113434287502 54.038359799255204 H 0.0 **** 0.06
16658 H 54.83386522934666 99.11501147887017 52.85022343034643 H 0.0 **** 0.06
16659 H 54.0718276757826 97.6252641301508 53.45855112821425 H 0.0 **** 0.06
16660 H 55.10803548287251 98.59720134252028 54.5308697936847 H 0.0 **** 0.06
16661 C 98.90288983239336 69.78090455489959 34.18629573365928 C 0.0 **** -0.24
16662 H 99.18977457119107 69.67855805732313 33.1393572977214 H 0.0 **** 0.06
16663 H 98.40407459904276 68.86953877542257 34.51634648529671 H 0.0 **** 0.06
16664 H 98.22423320413506 70.62756781751831 34.295122520868034 H 0.0 **** 0.06
16665 H 99.79326155185177 69.94904605151953 34.79139679624416 H 0.0 **** 0.06
16666 C 110.52697532685727 2.494162527796604 85.66781086553056 C 0.0 **** -0.24
16667 H 111.28261168646964 2.5738270796393294 86.4484156834913 H 0.0 **** 0.06
16668 H 110.8464316823277 1.760283979655199 84.92692646316794 H 0.0 **** 0.06
16669 H 110.39698615618852 3.4634868072370324 85.18680883818655 H 0.0 **** 0.06
16670 H 109.58137453634617 2.176895478460665 86.10941087014788 H 0.0 **** 0.06
16671 C 66.55104194447497 105.64034638282007 110.49544497557535 C 0.0 **** -0.24
16672 H 65.92857435081896 106.5290570390202 110.60639203860146 H 0.0 **** 0.06
16673 H 67.60237931666754 105.92128288859757 110.57698800602053 H 0.0 **** 0.06
16674 H 66.3695988656477 105.19016617875104 109.51978424168895 H 0.0 **** 0.06
16675 H 66.3041726095154 104.9238257855954 111.2785218830098 H 0.0 **** 0.06
16676 C 50.56744549867534 29.477170332406274 24.257127488874517 C 0.0 **** -0.24
16677 H 50.89060002669435 30.41874294784705 24.699808871352133 H 0.0 **** 0.06
16678 H 50.37705511277535 29.62169934846679 23.19370961909729 H 0.0 **** 0.06
16679 H 49.65349675087714 29.140339571947408 24.74692689904981 H 0.0 **** 0.06
16680 H 51.3474908307987 28.726727919490543 24.388638766550756 H 0.0 **** 0.06
16681 C 102.30808543386836 103.55693707081203 51.62549395909329 C 0.0 **** -0.24
16682 H 102.23338793866762 102.50578990570385 51.902641186338755 H 0.0 **** 0.06
16683 H 103.27551459783639 103.74153900085824 51.156992388511775 H 0.0 **** 0.06
16684 H 102.21175601040017 104.1754606223367 52.518003333092764 H 0.0 **** 0.06
16685 H 101.51112280884044 103.80515355740886 50.92353389429951 H 0.0 **** 0.06
16686 C 42.7913856652014 112.71492514360733 65.94243720249716 C 0.0 **** -0.24
16687 H 42.42180336269186 111.89766061237576 65.32264583091299 H 0.0 **** 0.06
16688 H 42.11056082993906 113.56304301069028 65.86933906368051 H 0.0 **** 0.06
16689 H 43.781441789037615 113.01341314649054 65.59649712394074 H 0.0 **** 0.06
16690 H 42.85321232582615 112.38644680602383 66.97901332194003 H 0.0 **** 0.06
16691 C 113.31588687706768 113.63236214841106 49.3722138452807 C 0.0 **** -0.24
16692 H 112.59764241312675 112.92638583520275 48.95575974058201 H 0.0 **** 0.06
16693 H 113.49453188262822 114.43454575336716 48.65429513212183 H 0.0 **** 0.06
16694 H 114.2531768373181 113.11665852756241 49.58068927163254 H 0.0 **** 0.06
16695 H 112.91894716813927 114.0524195790725 50.295442547222706 H 0.0 **** 0.06
16696 C 98.10542586832506 120.49017394086516 115.54777077748167 C 0.0 **** -0.24
16697 H 97.81892928864752 119.46255032534137 115.32370352835079 H 0.0 **** 0.06
16698 H 99.07930589707813 120.49589070559213 116.03792355838777 H 0.0 **** 0.06
16699 H 97.36327625196564 120.93828797514533 116.2095944297738 H 0.0 **** 0.06
16700 H 98.16049417275988 121.06219654521212 114.62226482969706 H 0.0 **** 0.06
16701 C 120.11804191348563 71.51456064991822 115.76641628729196 C 0.0 **** -0.24
16702 H 119.92733614623955 72.52796013845766 116.11960390499137 H 0.0 **** 0.06
16703 H 119.17329693828032 70.97756398581198 115.67656491680631 H 0.0 **** 0.06
16704 H 120.76358359920192 70.99775067097016 116.47640225454435 H 0.0 **** 0.06
16705 H 120.60733059293045 71.55419697340423 114.79294914123338 H 0.0 **** 0.06
16706 C 100.34864759400806 90.27528800490207 62.56674948919792 C 0.0 **** -0.24
16707 H 99.5957924589571 90.21374130251148 63.3532302017757 H 0.0 **** 0.06
16708 H 99.96298118725974 89.80985862505831 61.65907846806894 H 0.0 **** 0.06
16709 H 101.25104132442505 89.75502690472288 62.886196812940895 H 0.0 **** 0.06
16710 H 100.58169966252558 91.32128750189894 62.368400113302215 H 0.0 **** 0.06
16711 C 58.25975623172525 5.3857094598091635 95.73290261399775 C 0.0 **** -0.24
16712 H 57.73532665322921 6.338858931825143 95.66592946212221 H 0.0 **** 0.06
16713 H 58.94195095628163 5.2868998472889075 94.88796369462966 H 0.0 **** 0.06
16714 H 57.537026906952235 4.571055136618611 95.71432118161911 H 0.0 **** 0.06
16715 H 58.82600156125329 5.348111551044894 96.66342414582994 H 0.0 **** 0.06
16716 C 49.17094854403486 97.59014251339488 11.7344220931043 C 0.0 **** -0.24
16717 H 48.443611664567214 97.98715693149313 12.442813469184657 H 0.0 **** 0.06
16718 H 50.16975318759333 97.65070121714064 12.167679155425546 H 0.0 **** 0.06
16719 H 49.137247855846 98.17375130837183 10.814498324887694 H 0.0 **** 0.06
16720 H 48.93314395744869 96.54955678295971 11.513979320727131 H 0.0 **** 0.06
16721 C 4.822746260087683 30.011695938049726 0.5753810969940787 C 0.0 **** -0.24
16722 H 5.564381821941851 30.804573619330732 0.47215586262436204 H 0.0 **** 0.06
16723 H 5.270545180435903 29.16086738680295 1.0889749211816024 H 0.0 **** 0.06
16724 H 4.480190607974663 29.70314378083777 -0.4119288123628735 H 0.0 **** 0.06
16725 H 3.9757372065075742 30.381344609653723 1.1540798749516625 H 0.0 **** 0.06
16726 C 19.85255618638041 86.65318713629587 101.56489982159027 C 0.0 **** -0.24
16727 H 19.70750244905679 86.8942675107616 102.61738702263793 H 0.0 **** 0.06
16728 H 20.584304797943332 85.84942884099891 101.47404077127345 H 0.0 **** 0.06
16729 H 20.213458544549553 87.5350300485012 101.03652664090407 H 0.0 **** 0.06
16730 H 18.90479906547131 86.3316817034567 101.13234989846475 H 0.0 **** 0.06
16731 C 112.90277368920209 114.75493555177542 28.05923696627041 C 0.0 **** -0.24
16732 H 112.23229080048469 113.98311642377121 28.43691490499986 H 0.0 **** 0.06
16733 H 112.5081017399433 115.73754624774801 28.31886749532039 H 0.0 **** 0.06
16734 H 112.98190739276822 114.66869223725013 26.97547054188626 H 0.0 **** 0.06
16735 H 113.88957985842228 114.6287805480045 28.50659062830949 H 0.0 **** 0.06
16736 C 91.42743801395795 102.1339380390342 114.56739925354981 C 0.0 **** -0.24
16737 H 90.69837513246824 101.50974263231961 115.08310853487802 H 0.0 **** 0.06
16738 H 92.37525490555103 101.5994830124315 114.49373282582161 H 0.0 **** 0.06
16739 H 91.57467042591742 103.05874364027096 115.12493392240731 H 0.0 **** 0.06
16740 H 91.0634569646046 102.36751789578773 113.56644021376843 H 0.0 **** 0.06
16741 C 118.21595453784442 122.92550835287057 92.78317660426939 C 0.0 **** -0.24
16742 H 118.14111629250391 123.78814597038821 93.44515339931752 H 0.0 **** 0.06
16743 H 117.50031385106624 122.1644701377419 93.09659649415475 H 0.0 **** 0.06
16744 H 119.22482478463007 122.51764101865372 92.83107944700461 H 0.0 **** 0.06
16745 H 117.99579113663107 123.2322390614756 91.76115996983236 H 0.0 **** 0.06
16746 C 105.2217893697411 90.63876125372758 29.310593588672518 C 0.0 **** -0.24
16747 H 104.15649659412661 90.84980225968866 29.21812362458585 H 0.0 **** 0.06
16748 H 105.63752127991593 91.2267219737546 30.1295489827517 H 0.0 **** 0.06
16749 H 105.7268525723865 90.90089354972491 28.381089145142653 H 0.0 **** 0.06
16750 H 105.36565748178624 89.57759289924155 29.51575800549407 H 0.0 **** 0.06
16751 C 52.469775942335616 44.41287015551441 66.17547730289212 C 0.0 **** -0.24
16752 H 51.417760078980336 44.61124669169757 65.9737100845363 H 0.0 **** 0.06
16753 H 52.80533303155471 43.57481870454643 65.56364401268084 H 0.0 **** 0.06
16754 H 52.59713637335045 44.166392536717694 67.23048342296212 H 0.0 **** 0.06
16755 H 53.05898324199978 45.2973151815151 65.93582465119383 H 0.0 **** 0.06
16756 C 18.28222688937325 77.12978278583947 15.610442225651958 C 0.0 **** -0.24
16757 H 17.315381482186723 76.89701379507761 16.055215417832436 H 0.0 **** 0.06
16758 H 18.59333787919499 78.1279283952073 15.919618602926565 H 0.0 **** 0.06
16759 H 18.19971499862433 77.0956229175222 14.524307070676123 H 0.0 **** 0.06
16760 H 19.020360496558766 76.39986380602451 15.942077177405647 H 0.0 **** 0.06
16761 C 72.25011747512286 103.21318338467142 87.13101648916636 C 0.0 **** -0.24
16762 H 73.29003290050346 102.89357557057338 87.06609774448305 H 0.0 **** 0.06
16763 H 72.17137450495763 104.25493692181634 86.81897345025875 H 0.0 **** 0.06
16764 H 71.90334514086146 103.11367703927736 88.15944544989615 H 0.0 **** 0.06
16765 H 71.63735461182969 102.59074450093131 86.47773836992856 H 0.0 **** 0.06
16766 C 1.6380506017512175 69.50147905261946 82.16740795525595 C 0.0 **** -0.24
16767 H 2.624416317049736 69.04039257808893 82.12504519560815 H 0.0 **** 0.06
16768 H 1.4606308788342233 70.0647065736328 81.25044460548395 H 0.0 **** 0.06
16769 H 1.5891940430905152 70.17480932596152 83.02309486011148 H 0.0 **** 0.06
16770 H 0.878515149481899 68.72677939024936 82.26999942103072 H 0.0 **** 0.06
16771 C 52.292107640232416 40.933314732519534 121.97120273991935 C 0.0 **** -0.24
16772 H 52.84729695311148 41.0551845681108 122.90076835224737 H 0.0 **** 0.06
16773 H 52.01964686227234 41.91290749060255 121.57946198802185 H 0.0 **** 0.06
16774 H 51.387916730308405 40.35384345530787 122.16108063235158 H 0.0 **** 0.06
16775 H 52.912456475836564 40.409239320754864 121.24414566384694 H 0.0 **** 0.06
16776 C 109.19533712637076 103.8850484604707 68.54007024853843 C 0.0 **** -0.24
16777 H 108.60148347639773 103.03750482308864 68.88041898728115 H 0.0 **** 0.06
16778 H 108.8675260126767 104.78777256972073 69.05510979887303 H 0.0 **** 0.06
16779 H 109.06458930571182 104.01214438696975 67.46556369928456 H 0.0 **** 0.06
16780 H 110.2478280611133 103.70348920854826 68.7584959657104 H 0.0 **** 0.06
16781 C 8.672457713542386 8.689326259643526 9.172243413962917 C 0.0 **** -0.24
16782 H 9.257718002015721 9.231794617616366 8.430564158915445 H 0.0 **** 0.06
16783 H 9.319166089596976 8.393231465688778 9.999633275980273 H 0.0 **** 0.06
16784 H 8.238846642078357 7.800356318227749 8.714487393530817 H 0.0 **** 0.06
16785 H 7.874347497722539 9.331537093448947 9.546695169541238 H 0.0 **** 0.06
16786 C 113.01732223924417 56.58306069239043 31.62494318175446 C 0.0 **** -0.24
16787 H 112.69963327093673 56.97147088106411 32.592533977201185 H 0.0 **** 0.06
16788 H 113.9416104232867 56.017214796084545 31.746217829852256 H 0.0 **** 0.06
16789 H 113.18587774086504 57.41263785518785 30.938078204870862 H 0.0 **** 0.06
16790 H 112.24092364761232 55.93069917647195 31.22357868466664 H 0.0 **** 0.06
16791 C 101.9320770145178 68.67497410087475 15.78476991425947 C 0.0 **** -0.24
16792 H 101.82943975006958 69.69448823105921 16.156078710120454 H 0.0 **** 0.06
16793 H 100.94294248197946 68.24092070151914 15.63949011859657 H 0.0 **** 0.06
16794 H 102.48846389790174 68.07920744095063 16.509057483739383 H 0.0 **** 0.06
16795 H 102.46797324241857 68.68665497684975 14.835812864078179 H 0.0 **** 0.06
16796 C 30.799756427251225 94.15399422332538 3.382565967787219 C 0.0 **** -0.24
16797 H 31.664519258071124 93.49597982375414 3.47078177729696 H 0.0 **** 0.06
16798 H 31.00882918537073 95.09743256583346 3.8891244593373067 H 0.0 **** 0.06
16799 H 29.933187212066116 93.67817052536859 3.8426511343499783 H 0.0 **** 0.06
16800 H 30.593065504314012 94.344177383053 2.3296096967734687 H 0.0 **** 0.06
16801 C 38.378225502882486 109.59511101960905 3.6676440933691197 C 0.0 **** -0.24
16802 H 37.505313330333166 110.0794693003119 3.228839858004136 H 0.0 **** 0.06
16803 H 39.132620386398315 110.34741678250927 3.8981437927957643 H 0.0 **** 0.06
16804 H 38.78658298423565 108.87476198511163 2.9595331641038456 H 0.0 **** 0.06
16805 H 38.08605044189724 109.0804327799834 4.583126897543082 H 0.0 **** 0.06
16806 C 41.9179149103428 79.44436914520941 84.27507137027789 C 0.0 **** -0.24
16807 H 42.97201913594802 79.19427114856424 84.15356005672163 H 0.0 **** 0.06
16808 H 41.64030653835283 80.20877401580677 83.54815075327838 H 0.0 **** 0.06
16809 H 41.747723546004806 79.82258442118246 85.2829770206086 H 0.0 **** 0.06
16810 H 41.313006426444645 78.55298075970765 84.11393450019222 H 0.0 **** 0.06
16811 C 66.11087551522309 82.13621085267448 71.82053682084288 C 0.0 **** -0.24
16812 H 65.76993213191884 81.40451719819566 72.55324735907354 H 0.0 **** 0.06
16813 H 67.02012349403034 81.7741551108964 71.34222376502638 H 0.0 **** 0.06
16814 H 66.314467923411 83.08273562808273 72.32048246304359 H 0.0 **** 0.06
16815 H 65.33630232357243 82.28271539313477 71.06734260216507 H 0.0 **** 0.06
16816 C 12.218121959041127 109.95869866802485 122.77035202007818 C 0.0 **** -0.24
16817 H 13.240076992198055 110.04862055373965 123.13898555900117 H 0.0 **** 0.06
16818 H 12.101048486881552 109.00612116487369 122.25441736668331 H 0.0 **** 0.06
16819 H 12.009130005318298 110.77491282577034 122.07916066188727 H 0.0 **** 0.06
16820 H 11.524084993311703 110.00609113282252 123.60965909491989 H 0.0 **** 0.06
16821 C 44.3068122129244 46.91376277429288 43.69896222053412 C 0.0 **** -0.24
16822 H 43.86554991291244 46.070675815494496 44.23127858384447 H 0.0 **** 0.06
16823 H 43.66699712877997 47.78888960430771 43.81381609553506 H 0.0 **** 0.06
16824 H 44.399805567335875 46.66653589375784 42.64211609311227 H 0.0 **** 0.06
16825 H 45.29296046379474 47.12673790963203 44.11152969835189 H 0.0 **** 0.06
16826 C 50.97453061374907 0.7776482186067142 0.043721292630152675 C 0.0 **** -0.24
16827 H 50.9575315902795 -0.289196811890406 -0.17982610332221327 H 0.0 **** 0.06
16828 H 49.95689846032133 1.1675912228485004 0.032543536800773154 H 0.0 **** 0.06
16829 H 51.57083590324879 1.2962668250255547 -0.7078154775284276 H 0.0 **** 0.06
16830 H 51.41473486723484 0.9352028051253569 1.0285900654125726 H 0.0 **** 0.06
16831 C 19.737120615337886 102.60330538340901 19.169124078967844 C 0.0 **** -0.24
16832 H 19.965196717276626 103.6590718282692 19.315148756277477 H 0.0 **** 0.06
16833 H 19.930391786082893 102.05783722148014 20.09348954367659 H 0.0 **** 0.06
16834 H 20.365389861967202 102.20330257654697 18.37268433509465 H 0.0 **** 0.06
16835 H 18.687782210019876 102.49317529292108 18.893796942843526 H 0.0 **** 0.06
16836 C 82.4079900277307 1.76543235862394 72.41960226446403 C 0.0 **** -0.24
16837 H 82.21989719511322 2.6209450435589616 73.0678281554911 H 0.0 **** 0.06
16838 H 81.77972258032884 1.8371264998320669 71.5324176104724 H 0.0 **** 0.06
16839 H 82.17579438792069 0.8463259677026258 72.95693763130356 H 0.0 **** 0.06
16840 H 83.45714735390396 1.7584127256181148 72.12308857365701 H 0.0 **** 0.06
16841 C 77.00207065300366 88.92581055669837 11.634529075541167 C 0.0 **** -0.24
16842 H 76.69998098940289 89.69969722054054 10.928200522375263 H 0.0 **** 0.06
16843 H 77.79415700691422 89.31145546406742 12.27773900526941 H 0.0 **** 0.06
16844 H 77.3690023938666 88.05822872580876 11.086612529264187 H 0.0 **** 0.06
16845 H 76.14706267219374 88.63626859122309 12.24484659148797 H 0.0 **** 0.06
16846 C 76.20566036871584 98.33844211952419 104.1109467599745 C 0.0 **** -0.24
16847 H 75.92225731414352 98.18395623562611 105.15174764986618 H 0.0 **** 0.06
16848 H 75.30702040952939 98.42088530331364 103.49911583263422 H 0.0 **** 0.06
16849 H 76.80246365027067 97.49340042448864 103.76777030320768 H 0.0 **** 0.06
16850 H 76.78988815379223 99.25468073935144 104.02464263263604 H 0.0 **** 0.06
16851 C 63.41324458058001 12.364127667871458 108.64575959257323 C 0.0 **** -0.24
16852 H 63.855360162148344 11.369332579265233 108.70411430102234 H 0.0 **** 0.06
16853 H 62.559208831014814 12.421032105369193 109.32163650550034 H 0.0 **** 0.06
16854 H 63.08225081447131 12.55549940839262 107.62575488195955 H 0.0 **** 0.06
16855 H 64.15491532771145 13.108794288391437 108.93353867041147 H 0.0 **** 0.06
16856 C 111.28364980109241 123.75128951565726 7.788805721246774 C 0.0 **** -0.24
16857 H 112.33431837193821 123.84182692744398 8.067350732746036 H 0.0 **** 0.06
16858 H 110.67611540485873 124.34610169314256 8.470574829420855 H 0.0 **** 0.06
16859 H 110.98083363123189 122.70614379476228 7.848357951087223 H 0.0 **** 0.06
16860 H 111.14623432514968 124.1120312872795 6.769764979232207 H 0.0 **** 0.06
16861 C 76.32724280689212 15.253750540028758 82.52255950257043 C 0.0 **** -0.24
16862 H 75.72143855419716 14.55270673631243 83.0955694763084 H 0.0 **** 0.06
16863 H 77.32483366189092 15.313005499191792 82.95786404829558 H 0.0 **** 0.06
16864 H 75.8618906886008 16.2386014649188 82.54475653941718 H 0.0 **** 0.06
16865 H 76.40136736553137 14.909930080812384 81.49001999140224 H 0.0 **** 0.06
16866 C 18.926969794225556 113.03497406782839 11.28673350012788 C 0.0 **** -0.24
16867 H 18.943928607151406 112.96645897753541 10.199428694438765 H 0.0 **** 0.06
16868 H 18.635180486264403 114.04312124784161 11.582006258167993 H 0.0 **** 0.06
16869 H 19.918685849916073 112.81244678823936 11.68023771743897 H 0.0 **** 0.06
16870 H 18.208873412502726 112.31727391192737 11.684837558116485 H 0.0 **** 0.06
16871 C 116.05619041372097 64.44832289602171 103.90798935171992 C 0.0 **** -0.24
16872 H 115.12882152183516 65.01114009357298 104.01487926186486 H 0.0 **** 0.06
16873 H 116.88153533633124 65.02685611628654 104.32527448415881 H 0.0 **** 0.06
16874 H 116.24580133920895 64.25578646239683 102.85218155340941 H 0.0 **** 0.06
16875 H 115.9706609144385 63.50174106110684 104.44050806276584 H 0.0 **** 0.06
16876 C 93.60115490234199 57.34738422208058 9.737041141429685 C 0.0 **** -0.24
16877 H 94.2871471892633 56.825635102124195 10.402961591823725 H 0.0 **** 0.06
16878 H 92.98602423431635 56.62004433625836 9.204844941728169 H 0.0 **** 0.06
16879 H 94.17021988958481 57.93697001315063 9.017798221817756 H 0.0 **** 0.06
16880 H 92.95973940677021 58.007704443519074 10.32079458231803 H 0.0 **** 0.06
16881 C 79.2126703556196 119.69918972704932 40.16350426193887 C 0.0 **** -0.24
16882 H 79.08844052845427 119.95501830318034 39.110947645016736 H 0.0 **** 0.06
16883 H 79.7755524145661 118.76956599191195 40.24667996709664 H 0.0 **** 0.06
16884 H 78.23340007778819 119.57526287179115 40.62470867157934 H 0.0 **** 0.06
16885 H 79.75406436534792 120.49847458179721 40.66924029431124 H 0.0 **** 0.06
16886 C 3.0510618591567624 10.301295008375998 115.32064425784633 C 0.0 **** -0.24
16887 H 2.6164220416432897 11.17824046081276 115.80098751036041 H 0.0 **** 0.06
16888 H 2.2538561021952894 9.662405557119794 114.94100239584135 H 0.0 **** 0.06
16889 H 3.6469809269768305 9.747547652228203 116.04647968239092 H 0.0 **** 0.06
16890 H 3.6884934586021405 10.61860290878721 114.49445636203569 H 0.0 **** 0.06
16891 C 22.987228569089154 52.10652082040322 36.886218333634105 C 0.0 **** -0.24
16892 H 23.772496186910075 51.92989818522224 36.15245623271117 H 0.0 **** 0.06
16893 H 22.777931679812696 53.174840502452014 36.94500269465292 H 0.0 **** 0.06
16894 H 23.314398968126056 51.7467305635532 37.862592902632876 H 0.0 **** 0.06
16895 H 22.08354994338049 51.5750943276974 36.58693826583288 H 0.0 **** 0.06
16896 C 4.827687973417653 39.63433488649687 66.20304908974128 C 0.0 **** -0.24
16897 H 4.260663780106427 39.51008705951901 67.12594007995551 H 0.0 **** 0.06
16898 H 4.2637655889407995 40.26399410676919 65.51361337211088 H 0.0 **** 0.06
16899 H 4.9995277558867315 38.65900594510131 65.74798729152309 H 0.0 **** 0.06
16900 H 5.784971704721471 40.10560135373035 66.4263459655644 H 0.0 **** 0.06
16901 C 35.54233249961999 57.86741346338002 92.22516319930877 C 0.0 **** -0.24
16902 H 35.35915994794192 58.47288426891291 91.33767539104046 H 0.0 **** 0.06
16903 H 34.64034853925537 57.8368945250854 92.83691990878141 H 0.0 **** 0.06
16904 H 36.35801172806428 58.30499227278594 92.80162563806526 H 0.0 **** 0.06
16905 H 35.812574021060556 56.85520545041908 91.92595238213289 H 0.0 **** 0.06
16906 C 56.59748483891394 15.751785211564567 40.90299416322113 C 0.0 **** -0.24
16907 H 56.09063618232125 15.844068101272484 41.86321496016775 H 0.0 **** 0.06
16908 H 56.00821153504546 15.11920031722218 40.24011863750405 H 0.0 **** 0.06
16909 H 57.58073688587365 15.305548493734648 41.05321044377641 H 0.0 **** 0.06
16910 H 56.711384397098755 16.73937762395616 40.45634350672866 H 0.0 **** 0.06
16911 C 59.754548935478766 63.07389311075792 70.70179635261081 C 0.0 **** -0.24
16912 H 59.148976531125584 63.02357896561364 69.79673487837783 H 0.0 **** 0.06
16913 H 59.17822907641536 62.69348382507019 71.54620265154188 H 0.0 **** 0.06
16914 H 60.038894962645486 64.10866350534332 70.89149676600692 H 0.0 **** 0.06
16915 H 60.6521565097801 62.46889300710501 70.5724547775485 H 0.0 **** 0.06
16916 C 21.680910880913785 123.90492134533454 50.48006404222755 C 0.0 **** -0.24
16917 H 21.77726289757811 124.93379686861174 50.82587485577196 H 0.0 **** 0.06
16918 H 21.486816241638877 123.89825931873816 49.406715689564635 H 0.0 **** 0.06
16919 H 20.853861632717297 123.42239602954753 51.00190177967863 H 0.0 **** 0.06
16920 H 22.604559030603923 123.36440284419513 50.68571307438651 H 0.0 **** 0.06
16921 C 51.763719478019965 17.475089854886505 76.19397343626564 C 0.0 **** -0.24
16922 H 51.02385808602682 17.57674388775729 76.98790560141119 H 0.0 **** 0.06
16923 H 51.333349853156705 16.911218746797033 75.36619322275874 H 0.0 **** 0.06
16924 H 52.637852155566435 16.949554627281543 76.57741372078394 H 0.0 **** 0.06
16925 H 52.05952879523474 18.465714488629033 75.84519769501725 H 0.0 **** 0.06
16926 C 63.478008441211216 67.92453220589601 55.03568205684702 C 0.0 **** -0.24
16927 H 63.531726016780055 67.81431653894435 53.952599125645776 H 0.0 **** 0.06
16928 H 64.46837042004103 67.7773993950612 55.46479359648967 H 0.0 **** 0.06
16929 H 62.79113578382379 67.181134986615 55.441649167718694 H 0.0 **** 0.06
16930 H 63.11864385658549 68.92408986679658 55.281703034616456 H 0.0 **** 0.06
16931 C 18.065437227229722 20.549148800071528 53.286159439754044 C 0.0 **** -0.24
16932 H 17.370162326555885 19.713315682122445 53.36008836265211 H 0.0 **** 0.06
16933 H 17.691581543885547 21.385789964677407 53.87656032720102 H 0.0 **** 0.06
16934 H 18.160091507676043 20.852484766570214 52.2434516323859 H 0.0 **** 0.06
16935 H 19.040687525165936 20.243725143505465 53.66541128249406 H 0.0 **** 0.06
16936 C 58.44168745709368 121.43167077230754 12.970877191202227 C 0.0 **** -0.24
16937 H 58.37866750803863 121.21624378149112 11.904488717952646 H 0.0 **** 0.06
16938 H 59.251017011259705 120.84975510445399 13.412349227311601 H 0.0 **** 0.06
16939 H 57.49955692864529 121.16818855232675 13.451855266251826 H 0.0 **** 0.06
16940 H 58.63754078138095 122.49448689144657 13.114630821077881 H 0.0 **** 0.06
16941 C 107.60155974583574 59.285563268947655 81.4196531917338 C 0.0 **** -0.24
16942 H 107.140031227993 59.467360377985244 82.39047138751161 H 0.0 **** 0.06
16943 H 107.55049763138487 60.192735118317486 80.81746002610572 H 0.0 **** 0.06
16944 H 107.07055187403142 58.48020980518399 80.91077774386471 H 0.0 **** 0.06
16945 H 108.6441122789492 59.000131170177525 81.56180264161114 H 0.0 **** 0.06
16946 C 57.21073251339362 80.18591693787188 80.69670542642831 C 0.0 **** -0.24
16947 H 56.32039019324799 80.78348307187964 80.50204173355229 H 0.0 **** 0.06
16948 H 58.072625050268414 80.84411998825564 80.8107569927488 H 0.0 **** 0.06
16949 H 57.38120085956501 79.50588868322087 79.86283747833312 H 0.0 **** 0.06
16950 H 57.06925220252117 79.61109525370887 81.61211575887722 H 0.0 **** 0.06
16951 C 0.9855177610989188 121.00775769151451 54.31078929602748 C 0.0 **** -0.24
16952 H -0.020367476427963993 120.72822565769674 54.623657356775 H 0.0 **** 0.06
16953 H 1.3698747281369918 121.78036602791764 54.9776219982474 H 0.0 **** 0.06
16954 H 0.9547903432618909 121.3893342792471 53.29028705034861 H 0.0 **** 0.06
16955 H 1.6356767289114487 120.13425323413115 54.353403331495855 H 0.0 **** 0.06
16956 C 13.855789612689904 59.34365795059176 10.400033057582675 C 0.0 **** -0.24
16957 H 13.998383135253505 60.20055503760332 11.059581583080046 H 0.0 **** 0.06
16958 H 14.749890267042844 58.719871581734054 10.418263073472872 H 0.0 **** 0.06
16959 H 13.6769499517452 59.69363349001064 9.383597039885501 H 0.0 **** 0.06
16960 H 12.99889556477089 58.76261687220784 10.740664166538124 H 0.0 **** 0.06
16961 C 29.715444700845097 17.8783736637009 49.14925369107609 C 0.0 **** -0.24
16962 H 30.48334976128379 18.61680264295893 49.38196213907428 H 0.0 **** 0.06
16963 H 29.56873136410806 17.22473772303246 50.00995923893681 H 0.0 **** 0.06
16964 H 30.03185239765537 17.28501098304787 48.29203927969675 H 0.0 **** 0.06
16965 H 28.78099165810508 18.387431430623565 48.914418908605306 H 0.0 **** 0.06
16966 C 104.42901071094252 112.34436262974712 113.65909662112034 C 0.0 **** -0.24
16967 H 103.60335595375028 113.05101123193089 113.75044623386476 H 0.0 **** 0.06
16968 H 104.39190013007095 111.86701478253057 112.67942545567558 H 0.0 **** 0.06
16969 H 104.34476418787676 111.58514102827459 114.43705409044097 H 0.0 **** 0.06
16970 H 105.3743238734221 112.87563188278503 113.77000521422292 H 0.0 **** 0.06
16971 C 5.911467532422506 78.59141861399517 8.444270061693828 C 0.0 **** -0.24
16972 H 6.530142956297112 79.06935573709805 9.204253330231126 H 0.0 **** 0.06
16973 H 6.315208991505756 77.60456573217918 8.215645943630136 H 0.0 **** 0.06
16974 H 5.909198405691001 79.2020622104237 7.540720383980272 H 0.0 **** 0.06
16975 H 4.892603093175836 78.49016829521946 8.816814397411719 H 0.0 **** 0.06
16976 C 87.19805514559187 63.009491515578276 118.09935677145191 C 0.0 **** -0.24
16977 H 86.14610738871531 62.75976269628595 117.95996108971408 H 0.0 **** 0.06
16978 H 87.37463610237117 63.269919508715006 119.14318346139855 H 0.0 **** 0.06
16979 H 87.45807680601226 63.855711514366945 117.46372390824624 H 0.0 **** 0.06
16980 H 87.81374833162005 62.15027704025444 117.82977710803067 H 0.0 **** 0.06
16981 C 113.00416120463703 6.780902707498626 118.58759050623965 C 0.0 **** -0.24
16982 H 112.82314759150796 7.7677128779174325 119.0153492506852 H 0.0 **** 0.06
16983 H 113.37014715373027 6.109684899919728 119.36340334045744 H 0.0 **** 0.06
16984 H 113.74652496786268 6.8610568572657655 117.79402134206703 H 0.0 **** 0.06
16985 H 112.07372864818487 6.388534971375236 118.17585687574166 H 0.0 **** 0.06
16986 C 88.41336899651125 12.482843248179506 34.14345633897943 C 0.0 **** -0.24
16987 H 88.77705559757786 13.10073660563421 34.96408386059136 H 0.0 **** 0.06
16988 H 88.94212710823426 11.529170693612627 34.14458652323776 H 0.0 **** 0.06
16989 H 88.58913375156044 12.99436513950684 33.19681182079353 H 0.0 **** 0.06
16990 H 87.3443502852128 12.306618967233817 34.26800662066074 H 0.0 **** 0.06
16991 C 72.05043176650136 84.78701010710815 42.20342831881493 C 0.0 **** -0.24
16992 H 71.72937646444797 84.32522205837118 41.26995363970663 H 0.0 **** 0.06
16993 H 72.94207699816697 84.27773357074913 42.571823493879805 H 0.0 **** 0.06
16994 H 71.25352072900395 84.70584297000099 42.942651154913094 H 0.0 **** 0.06
16995 H 72.27801119504082 85.83873884087184 42.0288803399898 H 0.0 **** 0.06
16996 C 84.45631833262246 119.39290499293466 36.307346414942714 C 0.0 **** -0.24
16997 H 83.39594003638865 119.24865062878078 36.51467045916439 H 0.0 **** 0.06
16998 H 84.97398736115457 119.65495537752628 37.23052306273431 H 0.0 **** 0.06
16999 H 84.57879383523812 120.19688733101023 35.5811550540279 H 0.0 **** 0.06
17000 H 84.87605082629699 118.47212835408865 35.90390044467705 H 0.0 **** 0.06
17001 C 57.14099326537834 121.71806486052284 29.25779154676505 C 0.0 **** -0.24
17002 H 58.10649973559485 121.26029802466819 29.471104560016897 H 0.0 **** 0.06
17003 H 57.00472293745747 121.79106140846834 28.17824225454865 H 0.0 **** 0.06
17004 H 57.107504131714904 122.71535206981534 29.696122920246268 H 0.0 **** 0.06
17005 H 56.346669213918574 121.10649742999775 29.684256338324246 H 0.0 **** 0.06
17006 C 72.21007236013506 72.24192139251636 28.510054599161606 C 0.0 **** -0.24
17007 H 73.24451836058377 72.46310088809719 28.776300548578718 H 0.0 **** 0.06
17008 H 71.58602091202485 73.10882556567435 28.728198303454093 H 0.0 **** 0.06
17009 H 71.86173644210479 71.38737461092211 29.08833090003931 H 0.0 **** 0.06
17010 H 72.15118978390036 72.00993836727622 27.446164341087268 H 0.0 **** 0.06
17011 C 108.73395628348364 42.99254318810031 90.14179433701383 C 0.0 **** -0.24
17012 H 107.67982878653557 42.71860327677044 90.10854060035257 H 0.0 **** 0.06
17013 H 108.83534331567895 44.00173823948981 90.54224880316686 H 0.0 **** 0.06
17014 H 109.15090112397925 42.95717466695223 89.13493247179234 H 0.0 **** 0.06
17015 H 109.27102350609682 42.29208588161484 90.78169518207004 H 0.0 **** 0.06
17016 C 35.56775418731286 68.85664515253532 70.92898758454066 C 0.0 **** -0.24
17017 H 35.00339263932497 68.26671212988927 71.65171354886613 H 0.0 **** 0.06
17018 H 35.05273023413244 69.80059271068298 70.7504993651831 H 0.0 **** 0.06
17019 H 35.648806021691684 68.30321004980085 69.9938443580416 H 0.0 **** 0.06
17020 H 36.56406015046457 69.05430465749825 71.32249841218545 H 0.0 **** 0.06
17021 C 20.289008906900165 94.47915763227894 42.45956029687659 C 0.0 **** -0.24
17022 H 19.42209309876378 95.13721440238466 42.51758587523048 H 0.0 **** 0.06
17023 H 20.672502855354765 94.47329943634116 41.438627463634944 H 0.0 **** 0.06
17024 H 19.99697501208371 93.46884210969363 42.744417113334165 H 0.0 **** 0.06
17025 H 21.063689595040756 94.83825552264014 43.136949575498676 H 0.0 **** 0.06
17026 C 78.1204746091804 66.02701546883551 71.47551674006735 C 0.0 **** -0.24
17027 H 79.1418289761111 65.64648089966312 71.49229213691495 H 0.0 **** 0.06
17028 H 77.60041849226215 65.62861721106509 70.60353380028215 H 0.0 **** 0.06
17029 H 78.1395270834507 67.1151837230098 71.42133626668425 H 0.0 **** 0.06
17030 H 77.6019424198689 65.71645066050579 72.38191704368697 H 0.0 **** 0.06
17031 C 36.436919526046466 51.55213558417546 80.24877430830554 C 0.0 **** -0.24
17032 H 37.49776009105318 51.45477397700347 80.47742834565071 H 0.0 **** 0.06
17033 H 36.01912178806933 52.38602711326223 80.81429951835719 H 0.0 **** 0.06
17034 H 35.92104814068662 50.63210227675012 80.52221002982765 H 0.0 **** 0.06
17035 H 36.30998201188336 51.73692869396882 79.18169037276044 H 0.0 **** 0.06
17036 C 9.791602563119483 98.93056842253495 40.740545513976286 C 0.0 **** -0.24
17037 H 9.766115843630587 98.48526282695474 39.746346327731175 H 0.0 **** 0.06
17038 H 9.145146231869091 99.80842796106305 40.761272214957586 H 0.0 **** 0.06
17039 H 10.813606310315919 99.22516224677966 40.9803570299446 H 0.0 **** 0.06
17040 H 9.441381207666495 98.20414966950159 41.47354106560837 H 0.0 **** 0.06
17041 C 90.63200731079688 15.0284574069899 69.72183496896726 C 0.0 **** -0.24
17042 H 91.29681813629168 14.180798533624397 69.89275540110928 H 0.0 **** 0.06
17043 H 91.11961749404188 15.744085163438854 69.05880404568605 H 0.0 **** 0.06
17044 H 90.40571698270215 15.509817420405568 70.67342466518046 H 0.0 **** 0.06
17045 H 89.7077636918032 14.677933600481992 69.26224872878895 H 0.0 **** 0.06
17046 C 70.23581229300412 52.96387150737607 50.763911406466605 C 0.0 **** -0.24
17047 H 69.309473066758 53.318061483508444 51.21455286813878 H 0.0 **** 0.06
17048 H 70.0512721388266 52.02043227658456 50.24786859688291 H 0.0 **** 0.06
17049 H 70.98383858885971 52.81198461982498 51.5424387175849 H 0.0 **** 0.06
17050 H 70.5998113576008 53.703135599433296 50.05035832955343 H 0.0 **** 0.06
17051 C 43.08440618927099 29.952023399580526 75.04329334907001 C 0.0 **** -0.24
17052 H 42.345604434892834 30.70451328205297 74.76694995872552 H 0.0 **** 0.06
17053 H 43.97959175024894 30.081660681307426 74.4355650699955 H 0.0 **** 0.06
17054 H 42.669602294994974 28.9576226758698 74.87317359717025 H 0.0 **** 0.06
17055 H 43.33988021125569 30.063326133327337 76.0968693595415 H 0.0 **** 0.06
17056 C 65.1503456007826 58.815128164383296 50.82511428518791 C 0.0 **** -0.24
17057 H 65.87063761333758 59.01999340399665 51.616551147433654 H 0.0 **** 0.06
17058 H 64.23344793930022 59.372772735244084 51.01492707801242 H 0.0 **** 0.06
17059 H 64.92948213813975 57.74760170668999 50.80239109552491 H 0.0 **** 0.06
17060 H 65.569190223697 59.119836687882426 49.8655812467897 H 0.0 **** 0.06
17061 C 119.10372707039498 76.47171046906573 93.84928982194785 C 0.0 **** -0.24
17062 H 119.88592088434724 76.66099090101841 94.58615317268033 H 0.0 **** 0.06
17063 H 119.18420965823313 77.19842870705435 93.04116616865716 H 0.0 **** 0.06
17064 H 118.12722127687424 76.56264573320925 94.32559429599266 H 0.0 **** 0.06
17065 H 119.22087027010824 75.46555427432332 93.4474728749482 H 0.0 **** 0.06
17066 C 31.564580409278875 102.23485235649966 60.82796211696373 C 0.0 **** -0.24
17067 H 32.47738688659109 101.65230445073777 60.95531994678814 H 0.0 **** 0.06
17068 H 30.703237286421626 101.5659153241831 60.84685832519219 H 0.0 **** 0.06
17069 H 31.598041611889215 102.75719714110146 59.871955333091165 H 0.0 **** 0.06
17070 H 31.481187132154645 102.9603587113791 61.63651003868799 H 0.0 **** 0.06
17071 C 100.76588769736765 121.95985332119905 7.632489578481824 C 0.0 **** -0.24
17072 H 100.79143072875245 121.09834167965636 8.300823348664949 H 0.0 **** 0.06
17073 H 100.46471834683298 121.63744196089988 6.635503283388914 H 0.0 **** 0.06
17074 H 101.75721664234096 122.41015008380289 7.583843480266211 H 0.0 **** 0.06
17075 H 100.05200228131413 122.69196360522781 8.010420617764566 H 0.0 **** 0.06
17076 C 107.45041725617838 64.05125224512295 25.404384503439246 C 0.0 **** -0.24
17077 H 107.44339544182165 65.10271651175526 25.691079955229156 H 0.0 **** 0.06
17078 H 107.13851886237262 63.44225631510835 26.252577894527093 H 0.0 **** 0.06
17079 H 108.45768575133425 63.765131049530225 25.101700599720168 H 0.0 **** 0.06
17080 H 106.76254543851198 63.89766682871533 24.57256203402843 H 0.0 **** 0.06
17081 C 91.71399423457481 85.63266907674556 98.05625873066246 C 0.0 **** -0.24
17082 H 90.6680008271924 85.77932595248417 98.32491881841786 H 0.0 **** 0.06
17083 H 91.80980868254986 85.6023853852542 96.97113792223091 H 0.0 **** 0.06
17084 H 92.06849500979897 84.69303122422025 98.47901465455215 H 0.0 **** 0.06
17085 H 92.30823008798765 86.45715317051942 98.45116058698335 H 0.0 **** 0.06
17086 C 97.73370533499164 64.5279396466322 105.27892388211825 C 0.0 **** -0.24
17087 H 98.42012140384989 65.37515439460226 105.30069378371437 H 0.0 **** 0.06
17088 H 97.52262873340223 64.25791095188971 104.24439555543434 H 0.0 **** 0.06
17089 H 96.80524470979731 64.8021539433256 105.7800177915778 H 0.0 **** 0.06
17090 H 98.1867993296053 63.68010393861445 105.79112995786805 H 0.0 **** 0.06
17091 C 52.36397057948629 26.206021852274716 51.748860046163706 C 0.0 **** -0.24
17092 H 53.27432715483185 25.638348270832324 51.942047337639735 H 0.0 **** 0.06
17093 H 51.51426001616299 25.692894200097754 52.1999218088155 H 0.0 **** 0.06
17094 H 52.20916455818906 26.28969987296921 50.673816458341506 H 0.0 **** 0.06
17095 H 52.458342297460035 27.20271474826245 52.180985036173695 H 0.0 **** 0.06
17096 C 97.04869192334141 5.735920411283129 89.658708010119 C 0.0 **** -0.24
17097 H 98.00638530680625 5.367763078247716 90.02680619590365 H 0.0 **** 0.06
17098 H 96.59331463790339 4.982820791101172 89.01559822332301 H 0.0 **** 0.06
17099 H 97.20527454968192 6.652242421688264 89.09013213473999 H 0.0 **** 0.06
17100 H 96.38943059967359 5.93993147967829 90.50241808925222 H 0.0 **** 0.06
17101 C 10.583355585870919 114.57496547128774 14.934809682941378 C 0.0 **** -0.24
17102 H 10.631628760831205 115.5964264738072 14.556951443988481 H 0.0 **** 0.06
17103 H 10.00617742676613 113.95993548428987 14.244849423664334 H 0.0 **** 0.06
17104 H 10.10302292916586 114.57213510774233 15.913232000522285 H 0.0 **** 0.06
17105 H 11.592261632052413 114.17259971812263 15.024810162481629 H 0.0 **** 0.06
17106 C 116.70193587010539 52.20100540876821 119.19235145683759 C 0.0 **** -0.24
17107 H 116.15642206056864 52.01543087681618 120.11783160629923 H 0.0 **** 0.06
17108 H 117.29758617865062 53.107783874749245 119.29697088471926 H 0.0 **** 0.06
17109 H 115.9946450046037 52.32328404240536 118.37224703829865 H 0.0 **** 0.06
17110 H 117.35792789357377 51.355637514165316 118.98204845204381 H 0.0 **** 0.06
17111 C 9.173190054966476 104.47213952739645 8.196411238523694 C 0.0 **** -0.24
17112 H 8.971852940055726 104.12467700796708 7.182910923063275 H 0.0 **** 0.06
17113 H 8.93306356794696 105.53313305482858 8.269955430687787 H 0.0 **** 0.06
17114 H 10.226110964022201 104.31970802027047 8.430049450622505 H 0.0 **** 0.06
17115 H 8.559150620921088 103.91022765064602 8.901435647257813 H 0.0 **** 0.06
17116 C 115.65375335432837 77.14423179660031 105.03297444213545 C 0.0 **** -0.24
17117 H 115.14382819189564 77.7653174849695 105.76919016218555 H 0.0 **** 0.06
17118 H 115.16710420089258 76.16968309485316 104.98148467056983 H 0.0 **** 0.06
17119 H 116.69640324275318 77.01585624179853 105.32586469951784 H 0.0 **** 0.06
17120 H 115.60774335264934 77.62572309439054 104.05672761970082 H 0.0 **** 0.06
17121 C 20.367011531787114 78.80546959484205 41.927129797861085 C 0.0 **** -0.24
17122 H 20.262888672107977 78.03384383122402 42.69100538107236 H 0.0 **** 0.06
17123 H 20.418138722230253 79.78373804382021 42.40502367102778 H 0.0 **** 0.06
17124 H 19.506702321274588 78.77140837887345 41.25794547615479 H 0.0 **** 0.06
17125 H 21.27856000555755 78.6310277318485 41.356111333639234 H 0.0 **** 0.06
17126 C 82.04320246702967 2.1846874975074115 76.68542833907802 C 0.0 **** -0.24
17127 H 81.36805421845251 2.9943663448774345 76.96356454517665 H 0.0 **** 0.06
17128 H 82.693994929561 2.5158844298594545 75.87588248136137 H 0.0 **** 0.06
17129 H 81.46149055092681 1.3241586532262346 76.35549646249 H 0.0 **** 0.06
17130 H 82.64865640370758 1.9040803524325582 77.54751527758533 H 0.0 **** 0.06
17131 C 113.49301100982208 88.83368890914775 49.614808578973765 C 0.0 **** -0.24
17132 H 112.54205389432222 88.5310393512346 50.05420881129701 H 0.0 **** 0.06
17133 H 113.30727585794669 89.52748160835039 48.79401875926621 H 0.0 **** 0.06
17134 H 114.01483537449154 87.95518041986722 49.23677311232743 H 0.0 **** 0.06
17135 H 114.10463071247872 89.3229141541805 50.37250421372633 H 0.0 **** 0.06
17136 C 15.891241164996373 24.46510468945698 77.52703552093257 C 0.0 **** -0.24
17137 H 16.263881060742428 24.84149529495761 78.48034102948472 H 0.0 **** 0.06
17138 H 16.704803977704195 24.446758019370492 76.80198818008236 H 0.0 **** 0.06
17139 H 15.095849976789275 25.116078520283764 77.1651313926154 H 0.0 **** 0.06
17140 H 15.502346371190406 23.45633866918567 77.66218584369199 H 0.0 **** 0.06
17141 C 124.05794373208913 79.18495602126086 54.10201778787348 C 0.0 **** -0.24
17142 H 124.70017481650945 78.73145832870637 53.34751348283123 H 0.0 **** 0.06
17143 H 124.36907479659148 80.21602265416342 54.27152234449994 H 0.0 **** 0.06
17144 H 124.13740831185815 78.62326877961158 55.03308307113116 H 0.0 **** 0.06
17145 H 123.02393975179697 79.16954696773061 53.75657738698635 H 0.0 **** 0.06
17146 C 114.62350586338377 92.41470296056153 110.97445335686571 C 0.0 **** -0.24
17147 H 113.78868856418956 92.74511629786925 111.59346213942604 H 0.0 **** 0.06
17148 H 114.4659763200826 92.74467678530074 109.94742538960334 H 0.0 **** 0.06
17149 H 114.68678869868636 91.32665214670462 111.00140594862235 H 0.0 **** 0.06
17150 H 115.54994049870766 92.84261566339744 111.3569429254874 H 0.0 **** 0.06
17151 C 26.220320655039842 3.039398516942498 106.70943373656677 C 0.0 **** -0.24
17152 H 27.08053394153808 3.6501485008600696 106.98129804292414 H 0.0 **** 0.06
17153 H 25.785863793401262 2.6020654883687087 107.60879951633018 H 0.0 **** 0.06
17154 H 26.538086921438918 2.2440671281829054 106.03470243752167 H 0.0 **** 0.06
17155 H 25.47586823847223 3.661126197149116 106.21188573962857 H 0.0 **** 0.06
17156 C 110.34061997189073 94.8698683662492 90.33809935717557 C 0.0 **** -0.24
17157 H 110.5256299589935 95.70029006112517 91.01931871168364 H 0.0 **** 0.06
17158 H 109.39838170315535 94.38823094126441 90.59845510311646 H 0.0 **** 0.06
17159 H 111.15358915704246 94.14733489831973 90.41761830348798 H 0.0 **** 0.06
17160 H 110.28748195481214 95.24495713338077 89.31580903575576 H 0.0 **** 0.06
17161 C 3.5204018999484816 10.173671091903941 80.59442255163069 C 0.0 **** -0.24
17162 H 2.7670630104667566 10.960582764532091 80.58130078245819 H 0.0 **** 0.06
17163 H 3.5459213738617876 9.710070171276357 81.58030318316125 H 0.0 **** 0.06
17164 H 4.4972466708608465 10.603299789248297 80.3692131838283 H 0.0 **** 0.06
17165 H 3.2733321885457087 9.421383062089774 79.84469324240783 H 0.0 **** 0.06
17166 C 114.43924634888168 83.18367201995153 66.2832679062652 C 0.0 **** -0.24
17167 H 115.2404917959089 83.59381606137947 66.89692924261585 H 0.0 **** 0.06
17168 H 114.6870706589447 83.31214322474447 65.22887848513139 H 0.0 **** 0.06
17169 H 113.508670822079 83.70772105570107 66.50417416142324 H 0.0 **** 0.06
17170 H 114.32041133925941 82.12319076207199 66.50274543459415 H 0.0 **** 0.06
17171 C 11.032550432466735 85.17260147229666 34.86564352303817 C 0.0 **** -0.24
17172 H 11.41674924790641 85.59617393764671 33.937171985300154 H 0.0 **** 0.06
17173 H 10.932998733890742 85.962554159251 35.61082066904444 H 0.0 **** 0.06
17174 H 11.722897565637865 84.41306997761734 35.231324261434935 H 0.0 **** 0.06
17175 H 10.058043283072095 84.72017134609115 34.68173455672776 H 0.0 **** 0.06
17176 C 95.35946072688239 77.90675060012923 60.37052134070015 C 0.0 **** -0.24
17177 H 95.44974886317112 76.84519429538179 60.14392284090707 H 0.0 **** 0.06
17178 H 94.9765703446979 78.03099218847866 61.384130615518416 H 0.0 **** 0.06
17179 H 94.6733888745531 78.37338348877505 59.66301026901823 H 0.0 **** 0.06
17180 H 96.33952776033561 78.37845670695927 60.29112529396724 H 0.0 **** 0.06
17181 C 79.91909498426688 15.374579698735602 80.54134354511064 C 0.0 **** -0.24
17182 H 80.87839387215021 15.277368442429236 81.05184079376892 H 0.0 **** 0.06
17183 H 79.38361505375633 14.42645655390703 80.59151782358072 H 0.0 **** 0.06
17184 H 80.08939337251488 15.640743709104527 79.49820746629803 H 0.0 **** 0.06
17185 H 79.3285501961159 16.152713611750244 81.02421219793337 H 0.0 **** 0.06
17186 C 87.77061026773474 0.941217556740412 116.47786462969854 C 0.0 **** -0.24
17187 H 88.5702471853353 1.5173630427549085 116.94482282513276 H 0.0 **** 0.06
17188 H 87.66778970280235 -0.01679113492556894 116.98850837948832 H 0.0 **** 0.06
17189 H 88.01119746345968 0.7707442257624137 115.42875961926848 H 0.0 **** 0.06
17190 H 86.83395671769136 1.4948671840182612 116.55129476967421 H 0.0 **** 0.06
17191 C 85.12943276695552 118.44569383933197 54.10257162749215 C 0.0 **** -0.24
17192 H 85.96501984278241 118.36400962792466 54.79821785430644 H 0.0 **** 0.06
17193 H 85.48777357204325 118.28758996823291 53.085819597017604 H 0.0 **** 0.06
17194 H 84.68771603437567 119.43924878411704 54.18294351490417 H 0.0 **** 0.06
17195 H 84.37935249053481 117.6933351807867 54.34654240313421 H 0.0 **** 0.06
17196 C 34.84186434348288 18.9662380881187 78.64851937379304 C 0.0 **** -0.24
17197 H 34.62767272052133 19.92492929849567 79.12090356009502 H 0.0 **** 0.06
17198 H 34.891501462083426 19.09762971786688 77.56815228812954 H 0.0 **** 0.06
17199 H 34.05057257646999 18.25735436310373 78.89297372082636 H 0.0 **** 0.06
17200 H 35.79506223072323 18.586742535329734 79.01406898713724 H 0.0 **** 0.06
17201 C 74.92225521574886 32.59950897961397 35.934602505910675 C 0.0 **** -0.24
17202 H 75.2251165231979 31.89195093786094 35.163540064453656 H 0.0 **** 0.06
17203 H 75.45616400864601 33.54032172557913 35.793852420319126 H 0.0 **** 0.06
17204 H 75.15997034607962 32.1903427617699 36.91641115212829 H 0.0 **** 0.06
17205 H 73.84854961128997 32.77659267621732 35.864471193215934 H 0.0 **** 0.06
17206 C 96.94908500939547 96.28281301811786 113.77450145540412 C 0.0 **** -0.24
17207 H 97.6163720582662 96.60836065677076 114.57263142298062 H 0.0 **** 0.06
17208 H 96.83781935644615 95.1996193926861 113.81431586138135 H 0.0 **** 0.06
17209 H 97.36763064758841 96.57088030676273 112.81007960675161 H 0.0 **** 0.06
17210 H 95.97361406380256 96.75349738491707 113.901959033412 H 0.0 **** 0.06
17211 C 1.4986901546385525 42.57811812600772 93.89227063497327 C 0.0 **** -0.24
17212 H 1.253532473654218 43.477791844869046 94.45694278094959 H 0.0 **** 0.06
17213 H 2.4613217356941846 42.711654840870494 93.39732299627514 H 0.0 **** 0.06
17214 H 0.7277232331944106 42.396299443519524 93.14462928422188 H 0.0 **** 0.06
17215 H 1.5544841758294297 41.72718325711048 94.57089244660733 H 0.0 **** 0.06
17216 C 19.07719830178633 13.19041982573589 68.00839277810293 C 0.0 **** -0.24
17217 H 18.87244916073582 13.207763370239437 66.93790657966144 H 0.0 **** 0.06
17218 H 18.443867420772595 13.922398757900226 68.5104919649875 H 0.0 **** 0.06
17219 H 20.124981857366045 13.435979087872926 68.18273726545625 H 0.0 **** 0.06
17220 H 18.86701452398387 12.196399930370522 68.4022720695451 H 0.0 **** 0.06
17221 C 49.83573570021591 39.58547104241276 6.478923482744136 C 0.0 **** -0.24
17222 H 48.75752290842041 39.598975896658004 6.319410144136555 H 0.0 **** 0.06
17223 H 50.06786697858833 40.063166050255035 7.431599366840771 H 0.0 **** 0.06
17224 H 50.32919877863461 40.126765113966144 5.671430665816899 H 0.0 **** 0.06
17225 H 50.188886461526394 38.55418396782656 6.493763878847432 H 0.0 **** 0.06
17226 C 49.523621004475814 124.23541771322209 86.2261911365173 C 0.0 **** -0.24
17227 H 49.77618277112468 124.79333346354497 87.12768947711163 H 0.0 **** 0.06
17228 H 49.0104881646148 123.31397016530605 86.50141252554683 H 0.0 **** 0.06
17229 H 50.43555860725061 123.99457792071263 85.68049463351392 H 0.0 **** 0.06
17230 H 48.87225447491325 124.83978930332472 85.5951679098967 H 0.0 **** 0.06
17231 C 104.26401195152887 99.21856322977092 50.52911490711048 C 0.0 **** -0.24
17232 H 104.44615917868981 100.06227100060464 49.86447273219872 H 0.0 **** 0.06
17233 H 103.23712537455924 98.87427086164767 50.407474388648694 H 0.0 **** 0.06
17234 H 104.42288001589897 99.52982874153942 51.562301969899366 H 0.0 **** 0.06
17235 H 104.95043785797303 98.40808483668637 50.28515194267176 H 0.0 **** 0.06
17236 C 17.614588532080433 38.553329606802436 14.161276186075959 C 0.0 **** -0.24
17237 H 17.2706630762806 37.60249325954189 14.569239746358935 H 0.0 **** 0.06
17238 H 17.40789906508077 39.35067083023017 14.875143921412015 H 0.0 **** 0.06
17239 H 17.09181479060983 38.75686209223082 13.225922279671412 H 0.0 **** 0.06
17240 H 18.686828977958015 38.500727881100005 13.97374707738236 H 0.0 **** 0.06
17241 C 73.91905497507186 60.55016223701416 95.1567209416844 C 0.0 **** -0.24
17242 H 74.015934644203 61.2268010326266 96.00548472005961 H 0.0 **** 0.06
17243 H 73.9830507426518 61.11864584642257 94.22879818318289 H 0.0 **** 0.06
17244 H 72.9553518109639 60.04170578529349 95.20603665976913 H 0.0 **** 0.06
17245 H 74.71997091670823 59.8121422756887 95.18727978685611 H 0.0 **** 0.06
17246 C 25.89988597746345 23.07976676675031 30.956129448605168 C 0.0 **** -0.24
17247 H 25.677819588041174 22.013099072190286 30.974301370381397 H 0.0 **** 0.06
17248 H 25.34229090168018 23.55229210076058 30.14626504458414 H 0.0 **** 0.06
17249 H 26.967699116067955 23.226796572350622 30.796326427358792 H 0.0 **** 0.06
17250 H 25.608933846106332 23.527276544582037 31.906624886188013 H 0.0 **** 0.06
17251 C 54.552297039062864 80.03559626598727 24.85541614460641 C 0.0 **** -0.24
17252 H 53.90906464766675 80.06758171743502 23.975531052635432 H 0.0 **** 0.06
17253 H 54.753764483 81.0509329308932 25.19565133928694 H 0.0 **** 0.06
17254 H 55.49058276762133 79.54394898659825 24.600778188163446 H 0.0 **** 0.06
17255 H 54.05375341695634 79.47769441794935 25.64872979498446 H 0.0 **** 0.06
17256 C 29.894671240329153 58.000254742138 57.81591066312352 C 0.0 **** -0.24
17257 H 29.271828595118855 57.253036391166404 57.32406873086575 H 0.0 **** 0.06
17258 H 30.834014571909208 57.54243066294998 58.1267883760807 H 0.0 **** 0.06
17259 H 29.372733225817157 58.38950727590924 58.69056941215871 H 0.0 **** 0.06
17260 H 30.100272820956576 58.81606831771967 57.12320229465409 H 0.0 **** 0.06
17261 C 48.997864861656566 37.47687459322569 62.582839960010205 C 0.0 **** -0.24
17262 H 48.25383938606166 37.23855550947488 61.8231230503163 H 0.0 **** 0.06
17263 H 49.98095059391137 37.5568557958033 62.1166444329788 H 0.0 **** 0.06
17264 H 49.01463670203148 36.689319248332424 63.33490171608557 H 0.0 **** 0.06
17265 H 48.742362513422634 38.425376715136025 63.05524654550484 H 0.0 **** 0.06
17266 C 18.753018842024648 17.922357392549234 56.04022625519097 C 0.0 **** -0.24
17267 H 17.763802880773575 18.08581073963606 56.46650366731309 H 0.0 **** 0.06
17268 H 18.937265563870167 18.659074165643755 55.25834055660917 H 0.0 **** 0.06
17269 H 18.803131198538644 16.919692236713278 55.61383661248367 H 0.0 **** 0.06
17270 H 19.506398967191718 18.023381737376678 56.82141392314547 H 0.0 **** 0.06
17271 C 77.40195363663804 115.37860223589007 21.45571853695634 C 0.0 **** -0.24
17272 H 76.37731567564578 115.71367451267774 21.616831310788598 H 0.0 **** 0.06
17273 H 77.74142792200394 115.70729829072121 20.47287323747156 H 0.0 **** 0.06
17274 H 77.44058505702748 114.29038430649445 21.509076600822596 H 0.0 **** 0.06
17275 H 78.04848589187503 115.80305183366718 22.224092998742435 H 0.0 **** 0.06
17276 C 118.07733542260549 44.96398102430294 69.75854150670925 C 0.0 **** -0.24
17277 H 118.75332822954432 44.637693429902384 70.54855214459512 H 0.0 **** 0.06
17278 H 117.30351065503332 45.60409292958667 70.18307032883351 H 0.0 **** 0.06
17279 H 117.61417858678801 44.09340181841719 69.29330249294885 H 0.0 **** 0.06
17280 H 118.63846734789874 45.52114289325655 69.00789421466838 H 0.0 **** 0.06
17281 C 111.05226570941292 31.168111764665213 96.6658882599294 C 0.0 **** -0.24
17282 H 110.03089968090276 30.78799560300388 96.64764431457951 H 0.0 **** 0.06
17283 H 111.35979557963097 31.334677460021894 97.69781263022713 H 0.0 **** 0.06
17284 H 111.10011641278479 32.10853688493245 96.11542509493108 H 0.0 **** 0.06
17285 H 111.71789643261437 30.441225290196314 96.20024729467096 H 0.0 **** 0.06
17286 C 1.9730888526777335 64.81328547648079 50.07781978449253 C 0.0 **** -0.24
17287 H 2.0592604258488336 63.787489342434796 49.72021884850045 H 0.0 **** 0.06
17288 H 1.8578420262901432 64.81210462260836 51.16175589281556 H 0.0 **** 0.06
17289 H 1.1042855252910613 65.28515667113483 49.61990820923165 H 0.0 **** 0.06
17290 H 2.8723659998369726 65.36759547523566 49.8087551854274 H 0.0 **** 0.06
17291 C 21.678777939433644 91.45353145847086 63.686150946942064 C 0.0 **** -0.24
17292 H 22.133229960874928 92.41257621639681 63.932867726218504 H 0.0 **** 0.06
17293 H 22.376310086577234 90.86416447602879 63.08999053596209 H 0.0 **** 0.06
17294 H 20.764556848150278 91.62068364407325 63.116453079181724 H 0.0 **** 0.06
17295 H 21.44095841084294 90.91682347390822 64.60388459619085 H 0.0 **** 0.06
17296 C 62.07277461491495 48.43604836140593 117.4748239683396 C 0.0 **** -0.24
17297 H 61.40637243987432 48.195830152769 116.64684871538476 H 0.0 **** 0.06
17298 H 63.10669700196739 48.40125401714369 117.1313322463645 H 0.0 **** 0.06
17299 H 61.930767825208235 47.71205564632347 118.27755702479224 H 0.0 **** 0.06
17300 H 61.8468338776718 49.43693603042012 117.84468670762443 H 0.0 **** 0.06
17301 C 68.88249453946241 99.28423881607029 94.81074638643818 C 0.0 **** -0.24
17302 H 69.71934255130185 99.8670222441433 94.42610294460462 H 0.0 **** 0.06
17303 H 68.77531371075992 99.46492865384731 95.87986429783027 H 0.0 **** 0.06
17304 H 69.06903902856095 98.22350608067143 94.63783595166234 H 0.0 **** 0.06
17305 H 67.96785123000507 99.58042909857137 94.29800025801677 H 0.0 **** 0.06
17306 C 120.44533967762014 100.7635479090091 83.16839834315414 C 0.0 **** -0.24
17307 H 120.169517536033 101.14983336664906 84.14966354809144 H 0.0 **** 0.06
17308 H 119.65155090152645 100.11457875643305 82.79717310574915 H 0.0 **** 0.06
17309 H 121.37223972924134 100.19548035019997 83.24908454721819 H 0.0 **** 0.06
17310 H 120.58841506560451 101.59566254147268 82.47758035933802 H 0.0 **** 0.06
17311 C 116.85537341258718 16.483637783411957 40.7011463889167 C 0.0 **** -0.24
17312 H 117.73808878116404 15.95265068639046 41.05841103008558 H 0.0 **** 0.06
17313 H 117.16391740125903 17.332683418816035 40.0914261179137 H 0.0 **** 0.06
17314 H 116.27663388027575 16.83985265869213 41.553552536663176 H 0.0 **** 0.06
17315 H 116.2435147816974 15.809520350826624 40.10278918616689 H 0.0 **** 0.06
17316 C 12.981885891222618 43.732177447230995 64.75956538756822 C 0.0 **** -0.24
17317 H 11.995492600717085 43.32823339009792 64.53250557040951 H 0.0 **** 0.06
17318 H 13.363790462485582 43.26927490546217 65.66935592869936 H 0.0 **** 0.06
17319 H 12.908734924501232 44.81063823466704 64.90301231689153 H 0.0 **** 0.06
17320 H 13.660614239275276 43.521526477956215 63.93244582961398 H 0.0 **** 0.06
17321 C 36.32304888327053 9.42553256996348 85.80796441080668 C 0.0 **** -0.24
17322 H 35.245899811204765 9.565165338092214 85.89570401680976 H 0.0 **** 0.06
17323 H 36.60743108239683 8.486269490046709 86.28343617168457 H 0.0 **** 0.06
17324 H 36.83752773433662 10.252137208820074 86.29735684629048 H 0.0 **** 0.06
17325 H 36.600183567885495 9.397362847710866 84.7538635741601 H 0.0 **** 0.06
17326 C 47.21314555147791 11.818416769327598 62.09472062038786 C 0.0 **** -0.24
17327 H 47.61243647448242 11.930772766952629 63.10345481534026 H 0.0 **** 0.06
17328 H 47.88251016448322 11.1898517921 61.50776681685906 H 0.0 **** 0.06
17329 H 47.129909945920986 12.79855909082869 61.625959988561675 H 0.0 **** 0.06
17330 H 46.22790368749378 11.353936398090497 62.14539813031905 H 0.0 **** 0.06
17331 C 113.64127859790665 62.832605932308795 47.65146524161736 C 0.0 **** -0.24
17332 H 114.70649111003723 62.78554338472071 47.876667597743335 H 0.0 **** 0.06
17333 H 113.31404463648514 61.87921186884108 47.23639968889067 H 0.0 **** 0.06
17334 H 113.4586113590033 63.626487504468585 46.92752227758716 H 0.0 **** 0.06
17335 H 113.0855750106023 63.04031071708572 48.566026320406024 H 0.0 **** 0.06
17336 C 18.303877082878785 10.472100707053613 37.18558291788365 C 0.0 **** -0.24
17337 H 17.83027127972423 11.435156955588852 37.37328175618066 H 0.0 **** 0.06
17338 H 17.673028085144267 9.879802831149846 36.521237687844476 H 0.0 **** 0.06
17339 H 18.435637123544126 9.942087955486784 38.129361774218864 H 0.0 **** 0.06
17340 H 19.276260812396373 10.629978286570463 36.71853871715412 H 0.0 **** 0.06
17341 C 115.91455471454947 107.67067378129414 98.7883791269939 C 0.0 **** -0.24
17342 H 116.5177830143441 108.56977799265607 98.66525355454692 H 0.0 **** 0.06
17343 H 115.5937857335172 107.3130602338291 97.80998272717488 H 0.0 **** 0.06
17344 H 115.03915966297191 107.90046647845585 99.39554591576709 H 0.0 **** 0.06
17345 H 116.50683134367551 106.89941768362652 99.28059769934939 H 0.0 **** 0.06
17346 C 29.301842035139757 82.63129837255828 92.89822578104831 C 0.0 **** -0.24
17347 H 29.522360200094198 83.65949300536043 93.18691471301584 H 0.0 **** 0.06
17348 H 28.950998978111556 82.0768765503457 93.76860402969425 H 0.0 **** 0.06
17349 H 30.205436562837548 82.16194240425885 92.50816597064104 H 0.0 **** 0.06
17350 H 28.529200535847593 82.62800155445146 92.12862587575927 H 0.0 **** 0.06
17351 C 123.19155962363638 6.4237069226565495 18.394779735578027 C 0.0 **** -0.24
17352 H 122.42894118822159 6.259075051677883 19.156290866303465 H 0.0 **** 0.06
17353 H 124.06880286814149 5.817585980597698 18.621725585684175 H 0.0 **** 0.06
17354 H 123.47131503269779 7.47709402404638 18.383324243333746 H 0.0 **** 0.06
17355 H 122.79733553487074 6.142036978750411 17.417992062396934 H 0.0 **** 0.06
17356 C 1.8772753567786253 75.09374465837317 87.17448795304557 C 0.0 **** -0.24
17357 H 1.8289201494958007 75.9288518904757 87.8735490443531 H 0.0 **** 0.06
17358 H 2.2750532736677513 74.21649166963698 87.68545729837919 H 0.0 **** 0.06
17359 H 2.529011918545777 75.35606223208089 86.34152840205466 H 0.0 **** 0.06
17360 H 0.877558191580718 74.87559268073596 86.79961733289973 H 0.0 **** 0.06
17361 C 41.77859957007388 74.39669584885422 117.5466357298667 C 0.0 **** -0.24
17362 H 41.546157199077356 75.07946089414844 118.36340687394963 H 0.0 **** 0.06
17363 H 41.39559663758166 74.80555533887019 116.61140399368989 H 0.0 **** 0.06
17364 H 41.312274167400346 73.42959872065546 117.73821219532718 H 0.0 **** 0.06
17365 H 42.858213505221784 74.27074574468458 117.4746708129987 H 0.0 **** 0.06
17366 C 117.56541800214781 67.13600115162598 56.07410510074516 C 0.0 **** -0.24
17367 H 117.57201663775159 66.50390344878446 55.18753049855306 H 0.0 **** 0.06
17368 H 118.34988470140469 67.88812402502907 55.99099143271498 H 0.0 **** 0.06
17369 H 117.74176148178924 66.52293279816575 56.95853369319806 H 0.0 **** 0.06
17370 H 116.5970104140668 67.62888371492969 56.16135900036835 H 0.0 **** 0.06
17371 C 92.75593072058898 88.36832671430938 118.9987501979715 C 0.0 **** -0.24
17372 H 93.56024680575678 87.64018891004537 119.10484776780964 H 0.0 **** 0.06
17373 H 91.82253694941167 87.84964736333319 118.77896500675607 H 0.0 **** 0.06
17374 H 92.99181371489433 89.053661288873 118.18532264665001 H 0.0 **** 0.06
17375 H 92.64930826559872 88.9293458477992 119.92780237760601 H 0.0 **** 0.06
17376 C 96.06093612962138 100.0522246672522 40.364820208306725 C 0.0 **** -0.24
17377 H 96.59000292253427 100.5600353528908 39.55858802915634 H 0.0 **** 0.06
17378 H 96.56731419930736 99.1159445979392 40.59893893014308 H 0.0 **** 0.06
17379 H 95.03775882258071 99.8449797406607 40.05370870576883 H 0.0 **** 0.06
17380 H 96.05038941286602 100.69018159548253 41.24905008661 H 0.0 **** 0.06
17381 C 107.87216691486603 57.62638067456561 29.925621903571198 C 0.0 **** -0.24
17382 H 106.96639352545898 57.67878745879709 29.322151305565683 H 0.0 **** 0.06
17383 H 108.72185119514629 57.38684911376974 29.285610178724085 H 0.0 **** 0.06
17384 H 107.75948330973819 56.85302036616328 30.685128269873758 H 0.0 **** 0.06
17385 H 108.04279189632967 58.588405982248744 30.409153853464034 H 0.0 **** 0.06
17386 C 75.46516790183145 11.032591693157983 90.81773655295993 C 0.0 **** -0.24
17387 H 75.52109982310874 10.601723792663066 91.81651685159338 H 0.0 **** 0.06
17388 H 74.7132672305528 11.82215742939644 90.80369796168472 H 0.0 **** 0.06
17389 H 75.19133717051594 10.256895535080005 90.10211378529576 H 0.0 **** 0.06
17390 H 76.43464146333622 11.45002907115412 90.54731334578966 H 0.0 **** 0.06
17391 C 90.9270640394399 82.99731318353079 109.93381378639714 C 0.0 **** -0.24
17392 H 90.68039751834026 83.38241803029817 110.9239878475867 H 0.0 **** 0.06
17393 H 90.2164084153676 82.2166590051718 109.66066841074937 H 0.0 **** 0.06
17394 H 91.93547797496643 82.58336203034477 109.94656138738424 H 0.0 **** 0.06
17395 H 90.87570273272091 83.80681010833146 109.20625732336917 H 0.0 **** 0.06
17396 C 67.88600151066885 22.65492945970422 18.494508811088735 C 0.0 **** -0.24
17397 H 68.15911205412112 23.70305939875675 18.617341938110712 H 0.0 **** 0.06
17398 H 67.29519079134349 22.538310057018492 17.585509162737196 H 0.0 **** 0.06
17399 H 67.30052981842204 22.329482198006332 19.353864171393354 H 0.0 **** 0.06
17400 H 68.79026763628917 22.050747138281622 18.420805303748637 H 0.0 **** 0.06
17401 C 40.797102643799946 96.40648734377402 111.71593650874628 C 0.0 **** -0.24
17402 H 41.7057342946039 95.89238689047113 112.0315106346766 H 0.0 **** 0.06
17403 H 40.60165530643144 96.18520964797847 110.66730017665833 H 0.0 **** 0.06
17404 H 40.92649939916373 97.48241076054353 111.84263738337428 H 0.0 **** 0.06
17405 H 39.95867393488314 96.06717282576898 112.32279198753793 H 0.0 **** 0.06
17406 C 101.47372244123771 93.73729368260254 2.849590211474492 C 0.0 **** -0.24
17407 H 101.43948689265476 92.6495601624288 2.9083814247725286 H 0.0 **** 0.06
17408 H 102.32617416845981 94.04142161005514 2.2437017190648874 H 0.0 **** 0.06
17409 H 101.57292418558183 94.15159604209431 3.853066815430708 H 0.0 **** 0.06
17410 H 100.55395817489429 94.1048571386525 2.3947820129974247 H 0.0 **** 0.06
17411 C 7.783697391248172 69.89794852760059 105.03792589978346 C 0.0 **** -0.24
17412 H 7.403765506310986 70.76567633577372 105.57618779055593 H 0.0 **** 0.06
17413 H 7.249731938702741 69.79486584478809 104.09278749040189 H 0.0 **** 0.06
17414 H 7.633310826131872 69.00255532362775 105.64019539362528 H 0.0 **** 0.06
17415 H 8.848024734544353 70.03022943669117 104.8417275026105 H 0.0 **** 0.06
17416 C 83.54108917733504 111.52878315148541 100.21361055226666 C 0.0 **** -0.24
17417 H 83.96728791359112 112.3065473345528 100.8471933911853 H 0.0 **** 0.06
17418 H 82.71175414922402 111.05017906525252 100.73380206727089 H 0.0 **** 0.06
17419 H 84.30618189870421 110.78471081892431 99.98792427115896 H 0.0 **** 0.06
17420 H 83.18106403654735 111.97218859010762 99.28552532264271 H 0.0 **** 0.06
17421 C 8.234775330784117 4.598318749494808 74.86167576585083 C 0.0 **** -0.24
17422 H 7.870899171155941 3.5705490245842952 74.8421490291147 H 0.0 **** 0.06
17423 H 8.594756701839856 4.836664479398223 75.8627668996317 H 0.0 **** 0.06
17424 H 7.423353379205622 5.275511915342349 74.59592115363635 H 0.0 **** 0.06
17425 H 9.04919815011138 4.708532879961297 74.14549978426946 H 0.0 **** 0.06
17426 C 61.00406354963968 11.737175083950717 95.30681361343281 C 0.0 **** -0.24
17427 H 61.62635837858596 11.104237191555285 95.938747493678 H 0.0 **** 0.06
17428 H 60.82454611361288 11.235223614959807 94.356018722383 H 0.0 **** 0.06
17429 H 61.5134932751312 12.684014928724878 95.12813691654853 H 0.0 **** 0.06
17430 H 60.05313344813126 11.92464969647233 95.80454834996411 H 0.0 **** 0.06
17431 C 35.487739076575025 107.41500428354698 9.42847999535769 C 0.0 **** -0.24
17432 H 34.803475553386846 107.64739663990099 8.612532126448713 H 0.0 **** 0.06
17433 H 36.39618226505789 106.96696144283408 9.024512976724367 H 0.0 **** 0.06
17434 H 35.010695539217835 106.71374332749586 10.1139895169255 H 0.0 **** 0.06
17435 H 35.739849738219164 108.33072387501795 9.96299616485095 H 0.0 **** 0.06
17436 C 50.802447100668985 35.61659248495448 40.68417525867085 C 0.0 **** -0.24
17437 H 51.81784177243185 35.26597820740727 40.87026131903707 H 0.0 **** 0.06
17438 H 50.66101830013804 36.586895499924026 41.161475714475216 H 0.0 **** 0.06
17439 H 50.089605547653946 34.90171456598512 41.09595702547102 H 0.0 **** 0.06
17440 H 50.64145659008557 35.71241678002758 39.6102634921437 H 0.0 **** 0.06
17441 C 97.9226346936174 25.9442335264213 74.10698717838537 C 0.0 **** -0.24
17442 H 98.95665480588524 25.8084925653379 74.42416932273235 H 0.0 **** 0.06
17443 H 97.52238536443917 26.854730128378407 74.55242302487244 H 0.0 **** 0.06
17444 H 97.32862260799855 25.08921651678537 74.42991327968839 H 0.0 **** 0.06
17445 H 97.88394287772246 26.023825410418425 73.02079992133966 H 0.0 **** 0.06
17446 C 23.78516356141502 34.0663826729994 23.7021343708237 C 0.0 **** -0.24
17447 H 23.063776438250912 34.62536793624002 23.106667523880503 H 0.0 **** 0.06
17448 H 23.26238474369122 33.527235623870496 24.492964025803047 H 0.0 **** 0.06
17449 H 24.503679716341885 34.75559122277365 24.14528986656464 H 0.0 **** 0.06
17450 H 24.31064531260509 33.355949483722064 23.063393140606536 H 0.0 **** 0.06
17451 C 71.14051529866128 77.85338016835752 88.70992386656135 C 0.0 **** -0.24
17452 H 72.20997006484868 77.65522278296385 88.78118296726464 H 0.0 **** 0.06
17453 H 70.86960987004937 78.00996562497158 87.6657692065173 H 0.0 **** 0.06
17454 H 70.89693353505845 78.74538204550657 89.28762129300506 H 0.0 **** 0.06
17455 H 70.58673549815535 77.00231265090645 89.10554955893465 H 0.0 **** 0.06
17456 C 22.34939757589251 31.439134457286286 6.311522575995582 C 0.0 **** -0.24
17457 H 22.329041128525887 30.94206591272635 7.281869542665504 H 0.0 **** 0.06
17458 H 21.96622681649734 30.760958386991007 5.548894156068627 H 0.0 **** 0.06
17459 H 23.374075062281634 31.719987510855134 6.068808135757422 H 0.0 **** 0.06
17460 H 21.726468368849396 32.33309897422882 6.3481473869595675 H 0.0 **** 0.06
17461 C 123.95083359665576 79.19799626948807 26.74143894648296 C 0.0 **** -0.24
17462 H 123.96941638313996 80.28515131422472 26.811853774073086 H 0.0 **** 0.06
17463 H 123.97485327969389 78.90109385745686 25.69251723069067 H 0.0 **** 0.06
17464 H 123.03967636854702 78.81957034437784 27.20564910897008 H 0.0 **** 0.06
17465 H 124.81856351354227 78.78576296652926 27.25534277271413 H 0.0 **** 0.06
17466 C 114.97995457004396 82.97134853027814 10.677524154694623 C 0.0 **** -0.24
17467 H 115.32956112019934 82.31646129020973 11.475225623838952 H 0.0 **** 0.06
17468 H 114.0841653123129 82.54530294577404 10.225567874834695 H 0.0 **** 0.06
17469 H 115.75729508886195 83.06934123911219 9.920339365531134 H 0.0 **** 0.06
17470 H 114.74674039251738 83.95326147493628 11.08981027629153 H 0.0 **** 0.06
17471 C 11.18315268709415 113.46422862164178 10.904779070049102 C 0.0 **** -0.24
17472 H 11.644464812291147 112.81599825311397 10.159990375777596 H 0.0 **** 0.06
17473 H 11.307517376186183 114.50573890355548 10.606873867503452 H 0.0 **** 0.06
17474 H 11.660604459373388 113.30341979182725 11.871758942441033 H 0.0 **** 0.06
17475 H 10.121058263297982 113.23260199817506 10.980026723656238 H 0.0 **** 0.06
17476 C 76.28120779257702 45.005172734250216 115.2905790375394 C 0.0 **** -0.24
17477 H 75.98087419870811 44.56121210527422 114.34127591445292 H 0.0 **** 0.06
17478 H 76.5827237669067 46.040283353873875 115.12852701643217 H 0.0 **** 0.06
17479 H 77.11920935298522 44.443225369616826 115.70501641722197 H 0.0 **** 0.06
17480 H 75.4439978034618 44.97452321311858 115.98739516182144 H 0.0 **** 0.06
17481 C 104.24761529014087 65.73975657919456 108.34232624805219 C 0.0 **** -0.24
17482 H 103.6001053220499 65.29204872583318 109.09625079794534 H 0.0 **** 0.06
17483 H 103.79872377790932 66.6657519023187 107.98321934259286 H 0.0 **** 0.06
17484 H 104.36840716377876 65.04696407075971 107.5094021326802 H 0.0 **** 0.06
17485 H 105.22197171816862 65.95386265115994 108.78193956447517 H 0.0 **** 0.06
17486 C 13.350911770795875 101.31944673632458 96.8085270298621 C 0.0 **** -0.24
17487 H 14.167878218214383 101.1798927564773 97.51575129592614 H 0.0 **** 0.06
17488 H 13.021375279345222 100.34856215204306 96.4369337095517 H 0.0 **** 0.06
17489 H 13.692805050937437 101.931928239641 95.97439509546848 H 0.0 **** 0.06
17490 H 12.519460817152037 101.81790848939181 97.30813184166013 H 0.0 **** 0.06
17491 C 80.09042474213359 87.72965039330973 36.23346829554679 C 0.0 **** -0.24
17492 H 80.46292545206282 88.7408910202978 36.39709385708024 H 0.0 **** 0.06
17493 H 79.74233066930779 87.31345811457902 37.17822654454708 H 0.0 **** 0.06
17494 H 80.89217869500621 87.10729692081563 35.834875131978336 H 0.0 **** 0.06
17495 H 79.26487683367927 87.75700022943374 35.521774273501684 H 0.0 **** 0.06
17496 C 110.99463511085821 7.9307237134441735 112.15413037300698 C 0.0 **** -0.24
17497 H 111.24824908598072 7.582463285618683 113.15531333637682 H 0.0 **** 0.06
17498 H 110.0618634233214 8.493508363560274 112.19053262906948 H 0.0 **** 0.06
17499 H 110.87822066286685 7.074363189608068 111.49038418478318 H 0.0 **** 0.06
17500 H 111.79232570366582 8.573757041433126 111.78057364233666 H 0.0 **** 0.06
17501 C 109.8699448657663 122.71331802114335 90.85678006931755 C 0.0 **** -0.24
17502 H 110.58260745633163 121.88923468322494 90.88729862331655 H 0.0 **** 0.06
17503 H 108.88604142666149 122.35441036503053 91.16217183980456 H 0.0 **** 0.06
17504 H 109.81422701672766 123.10775345283733 89.84285509927759 H 0.0 **** 0.06
17505 H 110.19663190901129 123.50047061543495 91.53651464298179 H 0.0 **** 0.06
17506 C 74.67652590476575 101.89467786176175 22.02474370171521 C 0.0 **** -0.24
17507 H 74.60480488087256 101.58925181157976 20.980296099453838 H 0.0 **** 0.06
17508 H 74.72149261018961 101.00955272189468 22.6592326189932 H 0.0 **** 0.06
17509 H 73.80267249843757 102.4892962835423 22.2894318543035 H 0.0 **** 0.06
17510 H 75.57766623891354 102.48998153061395 22.166649534318694 H 0.0 **** 0.06
17511 C 24.75112657390423 44.44009293690823 16.372386094562614 C 0.0 **** -0.24
17512 H 24.314714367213895 43.75460282872939 17.09898461849201 H 0.0 **** 0.06
17513 H 25.5937131923329 43.95700959940035 15.877868173702154 H 0.0 **** 0.06
17514 H 25.094738366649807 45.339649604675685 16.88284317427673 H 0.0 **** 0.06
17515 H 23.998663970647243 44.70880432848497 15.630710999618032 H 0.0 **** 0.06
17516 C 106.45360886839467 100.83750889349517 111.15427630251747 C 0.0 **** -0.24
17517 H 106.80060143758128 100.01470155592138 110.53020188072952 H 0.0 **** 0.06
17518 H 105.76814145601512 100.45503342920543 111.91102374473982 H 0.0 **** 0.06
17519 H 105.93751114579865 101.57109272315401 110.53438708001632 H 0.0 **** 0.06
17520 H 107.30686088597847 101.30899799775214 111.64195317271827 H 0.0 **** 0.06
17521 C 27.095910815315904 70.24266199785134 63.14461472280047 C 0.0 **** -0.24
17522 H 28.092121182202845 70.6385570503285 62.94607569562649 H 0.0 **** 0.06
17523 H 26.34698926219272 70.91338107604284 62.72308162746708 H 0.0 **** 0.06
17524 H 26.945250171987027 70.16167619199351 64.22141387389138 H 0.0 **** 0.06
17525 H 26.999891674288023 69.2571910932264 62.690033520441204 H 0.0 **** 0.06
17526 C 25.571801817522577 76.23140804005016 68.99462891314013 C 0.0 **** -0.24
17527 H 24.994779087196278 77.1489708121785 68.87317062070913 H 0.0 **** 0.06
17528 H 25.323561802158224 75.53727106543982 68.19184410253281 H 0.0 **** 0.06
17529 H 25.331139805241534 75.77690517656737 69.95636417866521 H 0.0 **** 0.06
17530 H 26.635324265844673 76.4642567765577 68.95915932053916 H 0.0 **** 0.06
17531 C 42.946463997474495 92.4345939190483 53.7317387291984 C 0.0 **** -0.24
17532 H 42.538446709554734 92.86794533528888 54.64442164499283 H 0.0 **** 0.06
17533 H 42.168662363389885 92.39784347142766 52.96810674816177 H 0.0 **** 0.06
17534 H 43.302746981838816 91.4246415670592 53.93718323492746 H 0.0 **** 0.06
17535 H 43.77508019056944 93.04765032971719 53.37698422365895 H 0.0 **** 0.06
17536 C 1.0485618170375517 85.0593735380811 82.9139032709374 C 0.0 **** -0.24
17537 H 2.128660712148914 84.92546326460868 82.97383760496088 H 0.0 **** 0.06
17538 H 0.5937866261554063 84.77047671581491 83.86226973151116 H 0.0 **** 0.06
17539 H 0.6496920460216415 84.43636347742537 82.11473122447752 H 0.0 **** 0.06
17540 H 0.8231062152551942 86.10544767365678 82.70699659791066 H 0.0 **** 0.06
17541 C 76.03125716831049 108.9113174001036 114.8805127363272 C 0.0 **** -0.24
17542 H 75.07540170252219 108.39641361463362 114.7837339683092 H 0.0 **** 0.06
17543 H 76.6240635544899 108.43321847508514 115.65972237643439 H 0.0 **** 0.06
17544 H 75.85597530647593 109.95437597009743 115.1448114678239 H 0.0 **** 0.06
17545 H 76.5675375146201 108.8624268243102 113.93312169853459 H 0.0 **** 0.06
17546 C 29.94277817158371 8.23345802665268 85.61364801400063 C 0.0 **** -0.24
17547 H 30.739789667839226 8.516314496509125 86.3013387890671 H 0.0 **** 0.06
17548 H 30.030329402617795 8.815792697132604 84.69642076864864 H 0.0 **** 0.06
17549 H 28.976907368808966 8.42940246187256 86.07819082580862 H 0.0 **** 0.06
17550 H 30.024844533057646 7.171203781125325 85.38042320215033 H 0.0 **** 0.06
17551 C 83.20253615681352 60.5022714608229 84.81284525738333 C 0.0 **** -0.24
17552 H 84.11442434249395 60.40432205460502 85.40163260586968 H 0.0 **** 0.06
17553 H 83.30042079152673 59.92628004482344 83.89296800312263 H 0.0 **** 0.06
17554 H 83.0381953276827 61.55176657157784 84.56875140750822 H 0.0 **** 0.06
17555 H 82.35614692283356 60.12705104030505 85.38901507883838 H 0.0 **** 0.06
17556 C 2.9183061501783243 5.734102794006162 81.06316288610174 C 0.0 **** -0.24
17557 H 3.5183037709028895 4.994195377425399 81.59331814611807 H 0.0 **** 0.06
17558 H 3.004947698913739 5.569835003298664 79.98829864614612 H 0.0 **** 0.06
17559 H 3.275978469180771 6.7343907273340875 81.30777744526401 H 0.0 **** 0.06
17560 H 1.8753286437375323 5.637556746192843 81.3634385013967 H 0.0 **** 0.06
17561 C 112.07088120722338 21.172061303556774 122.44039391334633 C 0.0 **** -0.24
17562 H 112.97747284104122 21.689733505443087 122.75408933636461 H 0.0 **** 0.06
17563 H 112.25187694695404 20.66560434509259 121.49206083639902 H 0.0 **** 0.06
17564 H 111.26422278647516 21.895623020432367 122.31706340852438 H 0.0 **** 0.06
17565 H 111.79025657898208 20.439453871586124 123.19631243407699 H 0.0 **** 0.06
17566 C 123.96955933906858 102.78647934601372 4.835048626653986 C 0.0 **** -0.24
17567 H 124.24945855920481 101.92649648086743 5.443220961120886 H 0.0 **** 0.06
17568 H 123.05109994147693 102.56400114721836 4.292510650045017 H 0.0 **** 0.06
17569 H 124.7676194848007 103.00264382095028 4.12463843405385 H 0.0 **** 0.06
17570 H 123.81167117002131 103.65134610040158 5.478659129703431 H 0.0 **** 0.06
17571 C 6.279824302663911 119.2123200261129 16.04284159136398 C 0.0 **** -0.24
17572 H 7.11987340246489 119.53110982874549 15.424734524208276 H 0.0 **** 0.06
17573 H 5.642623871114779 120.06934818081834 16.259837058288184 H 0.0 **** 0.06
17574 H 6.655526992146832 118.79231150214548 16.975611128836192 H 0.0 **** 0.06
17575 H 5.703548554999145 118.45620356733943 15.509252898617177 H 0.0 **** 0.06
17576 C 81.05395692518961 38.47775240773521 55.96711120565797 C 0.0 **** -0.24
17577 H 80.64769951730493 38.060393972058705 55.046250459219465 H 0.0 **** 0.06
17578 H 80.34294503985566 39.18996712576765 56.38719341581884 H 0.0 **** 0.06
17579 H 81.9941583735283 38.98677924487532 55.75152896848735 H 0.0 **** 0.06
17580 H 81.23110875684937 37.675478225804795 56.68283603335195 H 0.0 **** 0.06
17581 C 2.0550478940878776 62.46617991057806 24.8854033030195 C 0.0 **** -0.24
17582 H 3.1034176560366262 62.184606894837145 24.983251027653978 H 0.0 **** 0.06
17583 H 1.889472406283005 63.427150728118164 25.372246749835256 H 0.0 **** 0.06
17584 H 1.4301112986208864 61.70771128050325 25.357106925882846 H 0.0 **** 0.06
17585 H 1.7965280427833505 62.54381842028923 23.82972275783041 H 0.0 **** 0.06
17586 C 101.53177857870423 4.837303738054761 31.167350673667897 C 0.0 **** -0.24
17587 H 102.55750240492813 4.585734457057804 31.43682651949257 H 0.0 **** 0.06
17588 H 101.45196305261493 5.911470446657063 31.00491610261531 H 0.0 **** 0.06
17589 H 100.86146050293121 4.539588038374248 31.97457296346687 H 0.0 **** 0.06
17590 H 101.25715209802945 4.309260214614429 30.25452757580308 H 0.0 **** 0.06
17591 C 61.144267776260676 75.66709813348359 72.16338421611314 C 0.0 **** -0.24
17592 H 60.2475205052381 75.12878770904291 72.46847414963486 H 0.0 **** 0.06
17593 H 60.88567200165886 76.70104408462316 71.93108097054059 H 0.0 **** 0.06
17594 H 61.57026678826165 75.1916187367247 71.27970615802613 H 0.0 **** 0.06
17595 H 61.872929486672945 75.64727409115619 72.97308216256266 H 0.0 **** 0.06
17596 C 25.239423261823994 36.829091522463784 86.61998511863608 C 0.0 **** -0.24
17597 H 24.363642145818112 37.22384958997185 86.10531319283756 H 0.0 **** 0.06
17598 H 25.660604253018434 37.60237519604652 87.2633440406952 H 0.0 **** 0.06
17599 H 25.984446947582136 36.52097397888605 85.88721098391296 H 0.0 **** 0.06
17600 H 24.947913807177443 35.97124076467338 87.22619880802094 H 0.0 **** 0.06
17601 C 115.20056386596681 89.78271345691948 19.661492305108265 C 0.0 **** -0.24
17602 H 115.97229246596191 89.03163886078208 19.493898725294546 H 0.0 **** 0.06
17603 H 114.23546382441654 89.2903170386576 19.784506257692303 H 0.0 **** 0.06
17604 H 115.15857046045963 90.45696750195087 18.806582544869446 H 0.0 **** 0.06
17605 H 115.43661485795786 90.35122749289822 20.5611691583386 H 0.0 **** 0.06
17606 C 15.72878207370917 61.45202200390554 92.62844093543006 C 0.0 **** -0.24
17607 H 14.839009503187068 61.30950246793742 92.01604677774176 H 0.0 **** 0.06
17608 H 16.04754700270555 60.49213688649604 93.03480553719905 H 0.0 **** 0.06
17609 H 15.500458875374107 62.13521481705453 93.44620604752421 H 0.0 **** 0.06
17610 H 16.527044603536353 61.87211079905677 92.0164057611938 H 0.0 **** 0.06
17611 C 79.27574988205129 74.12723231083639 71.73049373655397 C 0.0 **** -0.24
17612 H 80.14723024153864 73.55981128284843 72.05546298223561 H 0.0 **** 0.06
17613 H 78.57562473022298 74.22382239729615 72.56013029427908 H 0.0 **** 0.06
17614 H 78.79208292553164 73.60694414263573 70.90401132110503 H 0.0 **** 0.06
17615 H 79.58974053040478 75.11877011670884 71.40229192090118 H 0.0 **** 0.06
17616 C 26.444818210852482 0.3237895049602173 49.811013941712396 C 0.0 **** -0.24
17617 H 25.47801648287213 0.33572675869191926 50.31420438769802 H 0.0 **** 0.06
17618 H 26.99392119698259 1.232383383973854 50.05906596584267 H 0.0 **** 0.06
17619 H 26.293792035930494 0.2724651296309446 48.73313381602936 H 0.0 **** 0.06
17620 H 27.013766589937738 -0.5457489898349763 50.139851661602684 H 0.0 **** 0.06
17621 C 56.45737510385976 86.86006847431563 92.93170035206121 C 0.0 **** -0.24
17622 H 55.51160779346678 87.05450829445915 93.43665976942613 H 0.0 **** 0.06
17623 H 56.303626689504995 86.87384620640307 91.85306034592973 H 0.0 **** 0.06
17624 H 56.83535680170378 85.88361679739089 93.23315949971793 H 0.0 **** 0.06
17625 H 57.17907050867923 87.62956180925553 93.20601670807763 H 0.0 **** 0.06
17626 C 20.509350130907336 38.26251677634352 38.341198905737485 C 0.0 **** -0.24
17627 H 19.833666842532608 39.10346475628114 38.49772782778193 H 0.0 **** 0.06
17628 H 20.7844459449054 38.21019924991492 37.2874114895785 H 0.0 **** 0.06
17629 H 20.0126771128035 37.33800717622452 38.634803389361025 H 0.0 **** 0.06
17630 H 21.40693477591897 38.40021761244191 38.94409358294294 H 0.0 **** 0.06
17631 C 9.070880227021412 17.011242022487295 84.4594799845298 C 0.0 **** -0.24
17632 H 9.07673681913057 18.05091409284546 84.78838186738218 H 0.0 **** 0.06
17633 H 8.225091096546446 16.847889377645913 83.79081084058687 H 0.0 **** 0.06
17634 H 8.982687153829403 16.356624108022856 85.32527381504462 H 0.0 **** 0.06
17635 H 9.998913961196994 16.793122244296626 83.93141291030143 H 0.0 **** 0.06
17636 C 34.249075574331385 119.72553884185146 47.370582020444544 C 0.0 **** -0.24
17637 H 34.32003327701145 119.61601776992813 48.45162906709952 H 0.0 **** 0.06
17638 H 34.76109544639681 118.89342096946501 46.886693357705255 H 0.0 **** 0.06
17639 H 34.7146747528528 120.66406747608065 47.06847912951912 H 0.0 **** 0.06
17640 H 33.19996270637003 119.7293861328449 47.07405357088999 H 0.0 **** 0.06
17641 C 32.062944985250624 28.502846203423275 6.383340619708491 C 0.0 **** -0.24
17642 H 32.84716929238914 27.88468487165747 6.819948558918753 H 0.0 **** 0.06
17643 H 31.09886494066967 28.216707156528315 6.804076681317952 H 0.0 **** 0.06
17644 H 32.04602229870335 28.35810754450054 5.303104047132166 H 0.0 **** 0.06
17645 H 32.260628278981955 29.5514916514571 6.606070859579688 H 0.0 **** 0.06
17646 C 80.41332814648912 62.75540983613189 7.171763376706583 C 0.0 **** -0.24
17647 H 80.03590393945476 63.75031225560282 7.406833197094063 H 0.0 **** 0.06
17648 H 81.03953505965394 62.401611836065925 7.990204903816121 H 0.0 **** 0.06
17649 H 81.00252374549058 62.79732061601308 6.255092335258492 H 0.0 **** 0.06
17650 H 79.57481313390733 62.07263662544676 7.0330116311148 H 0.0 **** 0.06
17651 C 33.03531348248589 86.2305458660806 1.6059972674187293 C 0.0 **** -0.24
17652 H 33.038533954035415 85.29516507006588 2.1635723570996106 H 0.0 **** 0.06
17653 H 32.24937793540664 86.20141698250063 0.8515719831774504 H 0.0 **** 0.06
17654 H 34.0012034953827 86.36679192074388 1.1190083221728457 H 0.0 **** 0.06
17655 H 32.85316862629736 87.06071026474291 2.289265215394664 H 0.0 **** 0.06
17656 C 48.551721367839946 9.528525835343817 99.44428178951254 C 0.0 **** -0.24
17657 H 49.01861664729171 9.553045395047821 100.42874218873449 H 0.0 **** 0.06
17658 H 47.5061205681813 9.824938717569918 99.53098304612612 H 0.0 **** 0.06
17659 H 48.61066433877056 8.51757061420341 99.0402013386966 H 0.0 **** 0.06
17660 H 49.07148339074803 10.2170545338074 98.77914172956406 H 0.0 **** 0.06
17661 C 97.83435929158284 56.647741124765275 9.887320789595094 C 0.0 **** -0.24
17662 H 97.6384758789873 56.58196538218084 8.816304432582228 H 0.0 **** 0.06
17663 H 97.08733564300442 57.291242837759626 10.35387197906931 H 0.0 **** 0.06
17664 H 98.827382832479 57.06613327031545 10.049718251518186 H 0.0 **** 0.06
17665 H 97.78179776486027 55.651790338759554 10.326561041128798 H 0.0 **** 0.06
17666 C 12.590295568792754 71.3653359405778 67.68716308727676 C 0.0 **** -0.24
17667 H 12.060971407546248 72.31697577990676 67.64034161986011 H 0.0 **** 0.06
17668 H 12.821161963114577 71.02767806932066 66.6763319292366 H 0.0 **** 0.06
17669 H 11.961652254576478 70.6249356854886 68.18272418251358 H 0.0 **** 0.06
17670 H 13.515208094309799 71.49066256345759 68.24911744813564 H 0.0 **** 0.06
17671 C 67.97572110657305 114.06544343071344 54.69413180969036 C 0.0 **** -0.24
17672 H 68.66209968829787 113.66356497557236 53.94934740111509 H 0.0 **** 0.06
17673 H 67.87584285872873 115.14218208546987 54.55248795398583 H 0.0 **** 0.06
17674 H 68.36566652402084 113.86554387428424 55.69289430553323 H 0.0 **** 0.06
17675 H 67.00049602470655 113.59189161015536 54.58414825196289 H 0.0 **** 0.06
17676 C 79.1184681383321 31.56194009515491 20.48454650260439 C 0.0 **** -0.24
17677 H 79.42050416899218 30.963906990684876 19.623877326543266 H 0.0 **** 0.06
17678 H 79.61454688126548 31.184972701274944 21.37965445268773 H 0.0 **** 0.06
17679 H 78.03898687902034 31.494422764179944 20.612398859024722 H 0.0 **** 0.06
17680 H 79.40158673179877 32.60132101287181 20.322556372345773 H 0.0 **** 0.06
17681 C 70.7148915550789 53.42877030111393 19.47395253126173 C 0.0 **** -0.24
17682 H 71.73433810257524 53.04719279397716 19.539748495096575 H 0.0 **** 0.06
17683 H 70.25111942492933 53.3971946463588 20.459759350753245 H 0.0 **** 0.06
17684 H 70.14143422508403 52.81344542826835 18.781383656393643 H 0.0 **** 0.06
17685 H 70.7367153768756 54.45790989708985 19.114434575712977 H 0.0 **** 0.06
17686 C 83.71055147409876 57.40850536927661 124.0322204353428 C 0.0 **** -0.24
17687 H 83.20860858195908 57.9411822050462 123.22462807672423 H 0.0 **** 0.06
17688 H 84.46012400149897 58.058657922509184 124.48501671412835 H 0.0 **** 0.06
17689 H 84.19533914696746 56.51677783639076 123.63389812000732 H 0.0 **** 0.06
17690 H 82.97854252395663 57.11825041845606 124.78639528799816 H 0.0 **** 0.06
17691 C 3.276140239476888 114.53995688699311 1.1721562954040508 C 0.0 **** -0.24
17692 H 3.20373027501995 115.34175000148417 0.43648695989386965 H 0.0 **** 0.06
17693 H 3.077515372710394 114.94212098703798 2.1658689981053243 H 0.0 **** 0.06
17694 H 4.277610706740006 114.11274383403085 1.1463394137960137 H 0.0 **** 0.06
17695 H 2.5444915735731968 113.76723042881423 0.9393072480107492 H 0.0 **** 0.06
17696 C 86.43291650248146 37.37074269724744 30.25037858609619 C 0.0 **** -0.24
17697 H 86.44597953455447 36.47728870466369 29.625970034837735 H 0.0 **** 0.06
17698 H 86.8580442013988 38.207081706319826 29.69618893735634 H 0.0 **** 0.06
17699 H 87.02150213234695 37.19273731980903 31.15064897657419 H 0.0 **** 0.06
17700 H 85.40486134657876 37.603217230520755 30.529310350704918 H 0.0 **** 0.06
17701 C 69.37487416757351 28.117094744993466 103.2220363403392 C 0.0 **** -0.24
17702 H 69.24294302578758 28.383564245243207 104.27100627367321 H 0.0 **** 0.06
17703 H 69.81660267859414 27.12303122028166 103.15296872127973 H 0.0 **** 0.06
17704 H 70.0332824542141 28.841923896017448 102.74325566261255 H 0.0 **** 0.06
17705 H 68.40658756962311 28.12023639110953 102.72183749540041 H 0.0 **** 0.06
17706 C 36.675344504913625 116.40331864188352 28.98884549146692 C 0.0 **** -0.24
17707 H 37.04724672061383 115.67947606250954 29.714328361815646 H 0.0 **** 0.06
17708 H 35.70454487443661 116.77714686649603 29.313751977783312 H 0.0 **** 0.06
17709 H 36.57271089252632 115.92216145618357 28.015895419689514 H 0.0 **** 0.06
17710 H 37.37801805513993 117.23321423018254 28.911147850230435 H 0.0 **** 0.06
17711 C 31.903798537417202 100.79628554837689 11.840014205342186 C 0.0 **** -0.24
17712 H 32.07356110269777 101.39435805256068 10.945388813425268 H 0.0 **** 0.06
17713 H 31.564378043253924 101.4431647076297 12.649395341529669 H 0.0 **** 0.06
17714 H 32.83213745913565 100.30548601815076 12.13148007013774 H 0.0 **** 0.06
17715 H 31.142777674587336 100.04285762458596 11.63376342661877 H 0.0 **** 0.06
17716 C 35.12148176588739 16.909321446429004 37.878384662805786 C 0.0 **** -0.24
17717 H 34.09971195501499 17.082567147271845 37.54056949119786 H 0.0 **** 0.06
17718 H 35.75893892463673 17.727763311078462 37.54187899650128 H 0.0 **** 0.06
17719 H 35.487007556180764 15.970043260742756 37.463288172151636 H 0.0 **** 0.06
17720 H 35.14065260626475 16.857609131632273 38.9671964218295 H 0.0 **** 0.06
17721 C 111.12794069431084 6.861049594181594 78.03227885925207 C 0.0 **** -0.24
17722 H 110.47421367194246 7.660502458760533 78.38150059782623 H 0.0 **** 0.06
17723 H 110.53454351768573 6.104932769308107 77.51920304600503 H 0.0 **** 0.06
17724 H 111.63590650673308 6.409486002726368 78.88445828040051 H 0.0 **** 0.06
17725 H 111.86696033221594 7.2722938784355335 77.3448919210266 H 0.0 **** 0.06
17726 C 100.91360174982677 59.310663145036386 54.198728134390564 C 0.0 **** -0.24
17727 H 101.5455778952589 60.09659558877766 54.61303971594407 H 0.0 **** 0.06
17728 H 101.3174643547616 58.337180734607784 54.475277685863205 H 0.0 **** 0.06
17729 H 100.88980214438513 59.400650224364085 53.11254047519613 H 0.0 **** 0.06
17730 H 99.90329870654864 59.41149749465606 54.59458779889455 H 0.0 **** 0.06
17731 C 54.311180099006634 2.405959615001379 12.806515355192715 C 0.0 **** -0.24
17732 H 55.241691302025 1.8793829115166716 12.594752334855286 H 0.0 **** 0.06
17733 H 54.38675310468514 2.9018238575193323 13.774173390321465 H 0.0 **** 0.06
17734 H 53.48667007159804 1.6925830373301949 12.82715115670021 H 0.0 **** 0.06
17735 H 54.129164863467 3.1491896856533685 12.029724349020881 H 0.0 **** 0.06
17736 C 77.8334055216682 61.55410003131885 122.34777637931757 C 0.0 **** -0.24
17737 H 77.60991454476797 62.35972800819894 123.04592891421109 H 0.0 **** 0.06
17738 H 76.91200795017946 61.223455559010574 121.86690890074539 H 0.0 **** 0.06
17739 H 78.28077506982376 60.718859460071826 122.88769993495808 H 0.0 **** 0.06
17740 H 78.53075238279516 61.91269208312082 121.59101302511334 H 0.0 **** 0.06
17741 C 78.4725849953223 26.453649087064235 40.56989553763901 C 0.0 **** -0.24
17742 H 79.07944019764982 25.549620007766293 40.62222051984887 H 0.0 **** 0.06
17743 H 79.11709656907499 27.32932098272414 40.64684532863809 H 0.0 **** 0.06
17744 H 77.75399395120904 26.45679731474243 41.39075716992011 H 0.0 **** 0.06
17745 H 77.93738169495806 26.477429133054784 39.620015173097784 H 0.0 **** 0.06
17746 C 54.43777973614607 42.31136210184275 9.265115002543695 C 0.0 **** -0.24
17747 H 54.032411479606466 42.567627401250235 8.286544947438358 H 0.0 **** 0.06
17748 H 53.83505727772166 42.78014463845889 10.04245484772386 H 0.0 **** 0.06
17749 H 55.46569070959602 42.66771017458677 9.337501655382482 H 0.0 **** 0.06
17750 H 54.41989668802624 41.22909066519634 9.393265064821236 H 0.0 **** 0.06
17751 C 22.226504786334488 82.27251728595314 99.77903927894067 C 0.0 **** -0.24
17752 H 21.221796222459716 82.31085003320635 100.19928322911709 H 0.0 **** 0.06
17753 H 22.949583656837092 82.12234651056113 100.58123715722665 H 0.0 **** 0.06
17754 H 22.440625535449044 83.2111523679408 99.26680665883087 H 0.0 **** 0.06
17755 H 22.29300822829279 81.44767401983069 99.06991266025514 H 0.0 **** 0.06
17756 C 57.037062982169275 123.79635830293068 9.325847600414164 C 0.0 **** -0.24
17757 H 57.64673613667206 122.96832030382296 9.689585840034653 H 0.0 **** 0.06
17758 H 56.056997340761285 123.76285938228824 9.801934650255689 H 0.0 **** 0.06
17759 H 56.91957214770608 123.71244723806251 8.24506011466687 H 0.0 **** 0.06
17760 H 57.526820722480764 124.74028235799915 9.5664041933275 H 0.0 **** 0.06
17761 C 43.395935536705714 43.6791662577765 95.17877365853926 C 0.0 **** -0.24
17762 H 44.225520159124514 43.991486966314724 94.54401869267039 H 0.0 **** 0.06
17763 H 43.12934517766139 42.64872977088879 94.9456494716253 H 0.0 **** 0.06
17764 H 42.53836180196814 44.3269532776834 94.99948638834437 H 0.0 **** 0.06
17765 H 43.69277695736268 43.75137374245955 96.22534471967836 H 0.0 **** 0.06
17766 C 10.15987639000167 10.984137243664719 11.562482024921312 C 0.0 **** -0.24
17767 H 11.101780361248785 10.770949979858287 12.067940042457412 H 0.0 **** 0.06
17768 H 10.188022666050074 10.568351965861083 10.554389670808433 H 0.0 **** 0.06
17769 H 10.01353098625708 12.062316223175912 11.507593469520938 H 0.0 **** 0.06
17770 H 9.338826167218912 10.53295784846668 12.119757898797726 H 0.0 **** 0.06
17771 C 81.75287567287059 91.39531573580484 116.74446716233341 C 0.0 **** -0.24
17772 H 82.44049433821438 92.11272650548884 116.29531559950242 H 0.0 **** 0.06
17773 H 80.94681771491435 91.93072530729961 117.24731597435617 H 0.0 **** 0.06
17774 H 82.28898412599908 90.78237142044085 117.46723999040206 H 0.0 **** 0.06
17775 H 81.33497564851943 90.75744940938827 115.96518488776412 H 0.0 **** 0.06
17776 C 83.98409739245376 113.76837957171801 87.67160314783195 C 0.0 **** -0.24
17777 H 83.49710273931153 113.4929448304963 88.6066740434169 H 0.0 **** 0.06
17778 H 84.03049699943654 112.8974112014688 87.01634824433545 H 0.0 **** 0.06
17779 H 84.99348269828721 114.12270446870059 87.87750557377026 H 0.0 **** 0.06
17780 H 83.41357969218257 114.55937380774833 87.18452779891975 H 0.0 **** 0.06
17781 C 11.560892157981925 55.16383730690285 44.81248339382442 C 0.0 **** -0.24
17782 H 10.650714579384783 55.672605399670175 44.49617900224402 H 0.0 **** 0.06
17783 H 12.013357629190182 54.66248327102204 43.95710288399451 H 0.0 **** 0.06
17784 H 11.317546131915947 54.42803256609554 45.578992888417474 H 0.0 **** 0.06
17785 H 12.262017248741074 55.893384844673704 45.21928896026077 H 0.0 **** 0.06
17786 C 25.483831847444208 40.33563169903931 108.31466936568171 C 0.0 **** -0.24
17787 H 25.71012419687588 40.2453859638829 107.25197410476494 H 0.0 **** 0.06
17788 H 24.59745323757687 40.957085210146396 108.44553283851877 H 0.0 **** 0.06
17789 H 26.32856352846494 40.79367987613633 108.82794599043382 H 0.0 **** 0.06
17790 H 25.299281206205023 39.3457434497673 108.73196305145984 H 0.0 **** 0.06
17791 C 58.615086895979374 5.613276245612941 39.190722250329344 C 0.0 **** -0.24
17792 H 57.8983233940384 4.7932631659383915 39.149317819518444 H 0.0 **** 0.06
17793 H 59.507356474734664 5.344109382992421 38.62523403608216 H 0.0 **** 0.06
17794 H 58.88670468229968 5.8063102585967385 40.228777827651044 H 0.0 **** 0.06
17795 H 58.16750700408757 6.508590379385055 38.75924276226067 H 0.0 **** 0.06
17796 C 70.57309232575807 81.74977910840653 68.70390275217723 C 0.0 **** -0.24
17797 H 69.98722009655711 82.66054275058445 68.58134253140217 H 0.0 **** 0.06
17798 H 70.66896871012719 81.51928739194534 69.76593952615904 H 0.0 **** 0.06
17799 H 71.56380998948958 81.8941331866859 68.27239013057715 H 0.0 **** 0.06
17800 H 70.07282731429086 80.92457857438046 68.19714768345047 H 0.0 **** 0.06
17801 C 116.91462472562336 76.0664244858183 78.53191703227367 C 0.0 **** -0.24
17802 H 117.89927313181695 75.61060339101729 78.42607103770331 H 0.0 **** 0.06
17803 H 117.02238735563125 77.14966138063413 78.59455725252604 H 0.0 **** 0.06
17804 H 116.43791465067858 75.69481145288329 79.43798318265351 H 0.0 **** 0.06
17805 H 116.30204343445439 75.81147269137392 77.66717403706599 H 0.0 **** 0.06
17806 C 5.464594818619844 85.580649402566 117.57005786948201 C 0.0 **** -0.24
17807 H 5.181460860541449 86.12136557239745 116.66713047638274 H 0.0 **** 0.06
17808 H 4.688000066934933 85.7035438563966 118.32477254109256 H 0.0 **** 0.06
17809 H 6.40684440896905 85.97498462292901 117.9503263821855 H 0.0 **** 0.06
17810 H 5.581444019522735 84.52192833723643 117.33804991362626 H 0.0 **** 0.06
17811 C 92.68547013806062 27.79431642972375 44.57148861904974 C 0.0 **** -0.24
17812 H 92.29739329653474 28.636293665660446 43.99783765092105 H 0.0 **** 0.06
17813 H 91.85494758178433 27.236573045352515 45.004357322138766 H 0.0 **** 0.06
17814 H 93.33077545047767 28.165137662605332 45.368391637757824 H 0.0 **** 0.06
17815 H 93.25895622404626 27.141848896254345 43.914241746072285 H 0.0 **** 0.06
17816 C 122.44834435511112 123.7506352037209 34.25382965464985 C 0.0 **** -0.24
17817 H 121.75747974408277 123.97979286012391 35.065328624102335 H 0.0 **** 0.06
17818 H 122.87270414479786 122.75765821297723 34.40721887461899 H 0.0 **** 0.06
17819 H 123.24854907153924 124.4899847531357 34.238359861104215 H 0.0 **** 0.06
17820 H 121.91237152678022 123.77427815597076 33.30402338774488 H 0.0 **** 0.06
17821 C 74.78956758671082 112.69672830624829 26.447509676237672 C 0.0 **** -0.24
17822 H 75.1634755275905 113.52045625037928 27.05518377151637 H 0.0 **** 0.06
17823 H 73.76784442279958 112.91225400195455 26.13368138181022 H 0.0 **** 0.06
17824 H 74.80370637698698 111.77755504423666 27.033265871900653 H 0.0 **** 0.06
17825 H 75.42255852860356 112.57787994640623 25.56801877073397 H 0.0 **** 0.06
17826 C 10.057712963445766 87.94746628829355 39.73921032641931 C 0.0 **** -0.24
17827 H 10.161845342731453 87.02053762185508 39.173846296433396 H 0.0 **** 0.06
17828 H 9.24555494186069 87.8437067927353 40.45945408832509 H 0.0 **** 0.06
17829 H 9.835675512456191 88.76700988199724 39.056003655540394 H 0.0 **** 0.06
17830 H 10.98776283491631 88.15564230132503 40.267970840579835 H 0.0 **** 0.06
17831 C 48.57712471321821 89.44496236489056 84.45852110032115 C 0.0 **** -0.24
17832 H 49.03994653649579 88.45837153028214 84.47715391699538 H 0.0 **** 0.06
17833 H 47.534964730078286 89.35055398000287 84.15195237830615 H 0.0 **** 0.06
17834 H 49.10814437071741 90.08180404528349 83.75151369772226 H 0.0 **** 0.06
17835 H 48.62511438714711 89.88775427534796 85.45329997739238 H 0.0 **** 0.06
17836 C 1.0263560337406403 86.31487368024295 8.620759796434129 C 0.0 **** -0.24
17837 H 0.2776085944712321 87.0673780201272 8.374184908605173 H 0.0 **** 0.06
17838 H 0.6625850540874723 85.33009034305132 8.325352908554919 H 0.0 **** 0.06
17839 H 1.2146177398516187 86.32648821842986 9.693735226077706 H 0.0 **** 0.06
17840 H 1.951132332959233 86.534883024787 8.086716324291842 H 0.0 **** 0.06
17841 C 91.85242700473401 100.00637387516534 32.16678922479633 C 0.0 **** -0.24
17842 H 92.41208920598118 100.48834719575439 32.968769696786694 H 0.0 **** 0.06
17843 H 92.5085219457408 99.32162900626892 31.627784870167034 H 0.0 **** 0.06
17844 H 91.4759959499994 100.76545551992629 31.480359710804805 H 0.0 **** 0.06
17845 H 91.01580820955922 99.45125808552987 32.58974796801476 H 0.0 **** 0.06
17846 C 42.04644079283648 102.41053511456411 34.64631453675037 C 0.0 **** -0.24
17847 H 42.38038410210592 103.43781229247276 34.50067742284378 H 0.0 **** 0.06
17848 H 41.274232960620566 102.17169331734831 33.914714650946394 H 0.0 **** 0.06
17849 H 41.64181193785302 102.29941113122544 35.65177244188325 H 0.0 **** 0.06
17850 H 42.89070963003459 101.73289799359071 34.51813970922473 H 0.0 **** 0.06
17851 C 101.03909673105693 76.82657829896283 56.81985469129384 C 0.0 **** -0.24
17852 H 100.34987013010453 77.4422566087506 57.39907545940808 H 0.0 **** 0.06
17853 H 101.58814221178366 76.16637500619015 57.49293901032215 H 0.0 **** 0.06
17854 H 101.74032982469849 77.4690419936274 56.2886812943011 H 0.0 **** 0.06
17855 H 100.47642090211527 76.22947732930459 56.103043008234195 H 0.0 **** 0.06
17856 C 10.121487696825398 88.0159642591532 74.68872760246518 C 0.0 **** -0.24
17857 H 11.147682794542504 88.17984234938746 74.35995975786172 H 0.0 **** 0.06
17858 H 10.09147364466628 87.16967963394319 75.37563606934857 H 0.0 **** 0.06
17859 H 9.492257897952356 87.80513084355378 73.82420182427344 H 0.0 **** 0.06
17860 H 9.75453645014045 88.90920420972805 75.19511275837664 H 0.0 **** 0.06
17861 C 68.57844766370819 1.6198166799025984 29.83616456391593 C 0.0 **** -0.24
17862 H 68.48584008096354 1.3773464819859011 30.895629447072622 H 0.0 **** 0.06
17863 H 69.43715752171062 1.094613964276519 29.41755590040168 H 0.0 **** 0.06
17864 H 68.71799508042945 2.695268073089734 29.72118373895455 H 0.0 **** 0.06
17865 H 67.67282654926468 1.3124074619013069 29.313429768763967 H 0.0 **** 0.06
17866 C 77.05927203530277 78.40298458759096 120.35545371873954 C 0.0 **** -0.24
17867 H 77.03119800545952 78.82300681649531 119.34979477680204 H 0.0 **** 0.06
17868 H 76.92418068171887 79.20095759112155 121.08573526078064 H 0.0 **** 0.06
17869 H 78.02159279879669 77.91881299715888 120.51975311840712 H 0.0 **** 0.06
17870 H 76.2602962412752 77.67062526178387 120.46518125925846 H 0.0 **** 0.06
17871 C 113.20406384971346 85.80692440810247 21.23718571518097 C 0.0 **** -0.24
17872 H 114.016563823274 86.2600826885593 21.804798303934575 H 0.0 **** 0.06
17873 H 112.26714615249199 86.30823108599168 21.482867673040033 H 0.0 **** 0.06
17874 H 113.12883716167397 84.75009960724685 21.492189566002025 H 0.0 **** 0.06
17875 H 113.40330975336593 85.91066109806687 20.171522837626696 H 0.0 **** 0.06
17876 C 74.91436301598378 67.90751808036498 22.52428177870061 C 0.0 **** -0.24
17877 H 75.91366694549808 68.27554629589633 22.755726308144325 H 0.0 **** 0.06
17878 H 74.71653530776237 68.03760501618524 21.46077473095454 H 0.0 **** 0.06
17879 H 74.1783372164728 68.46765970972314 23.102158197986952 H 0.0 **** 0.06
17880 H 74.84868561284782 66.85034623291665 22.780652304649657 H 0.0 **** 0.06
17881 C 45.67525222555588 24.56106580576217 40.7633371555458 C 0.0 **** -0.24
17882 H 45.481458704489114 25.626020188632168 40.634492479915934 H 0.0 **** 0.06
17883 H 44.8315529310176 24.09954276831833 41.27890851796781 H 0.0 **** 0.06
17884 H 46.5802183997892 24.425398497066908 41.354321278043585 H 0.0 **** 0.06
17885 H 45.80408057692057 24.09529304138246 39.78679189518175 H 0.0 **** 0.06
17886 C 19.937282893007556 44.50369933319478 97.13544954597657 C 0.0 **** -0.24
17887 H 18.87733083515514 44.55990405409751 97.38378477011622 H 0.0 **** 0.06
17888 H 20.13838300516924 43.57086138087275 96.6089157921032 H 0.0 **** 0.06
17889 H 20.52635753306729 44.53844208674648 98.05242379196446 H 0.0 **** 0.06
17890 H 20.206208828695466 45.346443418252754 96.49855712261046 H 0.0 **** 0.06
17891 C 5.327781376819804 36.6613307249396 1.3046822655100527 C 0.0 **** -0.24
17892 H 5.106981526416753 37.38372077243622 0.5197614559762371 H 0.0 **** 0.06
17893 H 6.3432868456180564 36.28493706970062 1.176814251488608 H 0.0 **** 0.06
17894 H 4.622038858557396 35.83279881032939 1.2445817331569344 H 0.0 **** 0.06
17895 H 5.239698696025506 37.14384112488648 2.2786781194530903 H 0.0 **** 0.06
17896 C 61.506054354713 50.78529730966855 84.86544981818703 C 0.0 **** -0.24
17897 H 62.05124719933468 50.6839281532049 85.80376999567896 H 0.0 **** 0.06
17898 H 60.437217943540276 50.67790382282908 85.05269329760405 H 0.0 **** 0.06
17899 H 61.832171139323805 50.011435700146336 84.17047013145229 H 0.0 **** 0.06
17900 H 61.7026887021392 51.76682961685236 84.43497225572438 H 0.0 **** 0.06
17901 C 122.96077003041762 60.97458920517603 57.30264213703485 C 0.0 **** -0.24
17902 H 122.39288040504769 61.25946717125349 58.188925771784895 H 0.0 **** 0.06
17903 H 123.53721995810625 61.83162469256733 56.95107210874005 H 0.0 **** 0.06
17904 H 122.27418925243539 60.65177305650394 56.51933291703685 H 0.0 **** 0.06
17905 H 123.6384475651576 60.15877580320273 57.551552335429676 H 0.0 **** 0.06
17906 C 3.359305605491272 82.58187935382466 84.93926382787947 C 0.0 **** -0.24
17907 H 3.016933441375727 83.44180498192537 84.36098095309205 H 0.0 **** 0.06
17908 H 4.057699901585664 81.9979579204869 84.34046934769594 H 0.0 **** 0.06
17909 H 2.5042706357911584 81.96224190440262 85.20818630524684 H 0.0 **** 0.06
17910 H 3.856110741121171 82.9288406163588 85.84495870654382 H 0.0 **** 0.06
17911 C 103.72014643645952 21.61645847937706 5.2891861701842515 C 0.0 **** -0.24
17912 H 104.78953730533186 21.439611458016657 5.400509854778456 H 0.0 **** 0.06
17913 H 103.3273683766339 20.981498846889167 4.494497290883071 H 0.0 **** 0.06
17914 H 103.54862357814253 22.66241399139136 5.036013002467637 H 0.0 **** 0.06
17915 H 103.21379829309069 21.381688019651563 6.2255494039914865 H 0.0 **** 0.06
17916 C 59.39294047678254 109.46088916036642 60.386877791361 C 0.0 **** -0.24
17917 H 59.53614949696305 109.1355818142445 61.4166889132275 H 0.0 **** 0.06
17918 H 59.770024890986534 110.47776021992257 60.27145518938627 H 0.0 **** 0.06
17919 H 58.330330761464666 109.43772510400066 60.14297251571682 H 0.0 **** 0.06
17920 H 59.93469640726123 108.79410726653705 59.71613184891905 H 0.0 **** 0.06
17921 C 116.37199500785083 59.820039942696155 78.45774110341537 C 0.0 **** -0.24
17922 H 115.36130508455354 59.43669470556529 78.5951236835098 H 0.0 **** 0.06
17923 H 116.92361800992151 59.73651743393344 79.39415221112577 H 0.0 **** 0.06
17924 H 116.32645509207099 60.86557030865441 78.15436999266296 H 0.0 **** 0.06
17925 H 116.87801086253916 59.24002868669561 77.68482927215294 H 0.0 **** 0.06
17926 C 63.65383938181424 90.52061966027935 91.33819392994249 C 0.0 **** -0.24
17927 H 64.17823941786585 90.69691083665637 92.27659131550828 H 0.0 **** 0.06
17928 H 62.98182006858198 89.66992331758237 91.45262949100422 H 0.0 **** 0.06
17929 H 64.3778445227774 90.30862701595113 90.55174980876384 H 0.0 **** 0.06
17930 H 63.07680659077491 91.40589251639226 91.07236730522769 H 0.0 **** 0.06
17931 C 1.0397199278744527 105.65933766857447 52.63023401781041 C 0.0 **** -0.24
17932 H 1.2128299483703788 105.75385406325651 53.702423506579095 H 0.0 **** 0.06
17933 H -0.01618366637085522 105.82620715824416 52.4177066743035 H 0.0 **** 0.06
17934 H 1.3227152749863347 104.65929440978186 52.303653625309465 H 0.0 **** 0.06
17935 H 1.6394791783606113 106.39868739105017 52.099028258000885 H 0.0 **** 0.06
17936 C 45.520210276682604 113.75174685255678 39.27798019779216 C 0.0 **** -0.24
17937 H 46.21469423791727 113.74271427548945 38.43884489088475 H 0.0 **** 0.06
17938 H 45.097300658754946 114.75060589701258 39.389608246793145 H 0.0 **** 0.06
17939 H 46.04956236268643 113.47641032090337 40.19066465557221 H 0.0 **** 0.06
17940 H 44.71820687401189 113.0364442616488 39.09388922111101 H 0.0 **** 0.06
17941 C 89.65006472872074 72.52753309346633 31.739076944214162 C 0.0 **** -0.24
17942 H 88.88258552814483 71.77881626133836 31.936805346214555 H 0.0 **** 0.06
17943 H 89.51910953993143 73.36980508646246 32.4187396233491 H 0.0 **** 0.06
17944 H 89.563031956494 72.87315406117409 30.70911959739351 H 0.0 **** 0.06
17945 H 90.63564351056283 72.08607274494727 31.892520821381993 H 0.0 **** 0.06
17946 C 65.96382884557738 69.62895433263587 43.35836508745601 C 0.0 **** -0.24
17947 H 64.9525214975842 69.63235740549133 43.76357307372295 H 0.0 **** 0.06
17948 H 66.09921286350777 70.49711646746312 42.712625642112826 H 0.0 **** 0.06
17949 H 66.12042815667985 68.71711241748463 42.78099713668943 H 0.0 **** 0.06
17950 H 66.68229517601196 69.66905167873566 44.17674642417712 H 0.0 **** 0.06
17951 C 99.72589890378168 32.83989790726342 94.64382016000359 C 0.0 **** -0.24
17952 H 100.62729178259653 32.26609664104332 94.85971065559984 H 0.0 **** 0.06
17953 H 99.29779137951837 32.50132375771983 93.69998795376966 H 0.0 **** 0.06
17954 H 99.9792365152745 33.897938417218434 94.56949588849417 H 0.0 **** 0.06
17955 H 99.00221530682623 32.69483301976051 95.44606759747731 H 0.0 **** 0.06
17956 C 77.63526767397653 100.85743818447395 25.456524588153314 C 0.0 **** -0.24
17957 H 78.50928910505209 101.06151322448915 26.074810613333348 H 0.0 **** 0.06
17958 H 77.95738230090399 100.59442141400217 24.448346964940093 H 0.0 **** 0.06
17959 H 77.00335399988305 101.74460197634443 25.41696181237601 H 0.0 **** 0.06
17960 H 77.07202236833189 100.02822027150165 25.886210705322448 H 0.0 **** 0.06
17961 C 28.38268438763535 59.36048389158964 111.80797357668894 C 0.0 **** -0.24
17962 H 27.367161155279042 59.28948827249866 111.41755338162932 H 0.0 **** 0.06
17963 H 28.348013863181663 59.61275180850731 112.86793941301175 H 0.0 **** 0.06
17964 H 28.925954140820508 60.13498352521623 111.26664927866622 H 0.0 **** 0.06
17965 H 28.88887362478164 58.40374660520092 111.67787380959075 H 0.0 **** 0.06
17966 C 8.394576235687396 56.39794383086928 36.08117324521285 C 0.0 **** -0.24
17967 H 8.907644540090814 56.501602528700516 37.03789345537882 H 0.0 **** 0.06
17968 H 8.458853389725505 57.337453636821294 35.532245672009324 H 0.0 **** 0.06
17969 H 7.347397449513096 56.150055106177206 36.257086644239706 H 0.0 **** 0.06
17970 H 8.864142841902435 55.603730669826405 35.50202707383701 H 0.0 **** 0.06
17971 C 87.31782387288555 90.8312516080282 117.94423240154848 C 0.0 **** -0.24
17972 H 88.00891876216426 90.12673175854502 118.40781452356418 H 0.0 **** 0.06
17973 H 86.8433547896243 91.4369062057911 118.71652400372714 H 0.0 **** 0.06
17974 H 86.55552914990115 90.28146967945742 117.39244777125238 H 0.0 **** 0.06
17975 H 87.86552823485417 91.47905406159913 117.25976427132844 H 0.0 **** 0.06
17976 C 109.34939430015997 86.5402612848512 52.3636113303308 C 0.0 **** -0.24
17977 H 110.41439553330446 86.63408764007258 52.14849564039713 H 0.0 **** 0.06
17978 H 109.17858702822822 86.70716481882064 53.42718869001828 H 0.0 **** 0.06
17979 H 109.01119474900418 85.53952504645238 52.093393283261264 H 0.0 **** 0.06
17980 H 108.79538123879567 87.28015022247135 51.78512136160458 H 0.0 **** 0.06
17981 C 85.7339811456584 70.29809649586004 22.506604640711522 C 0.0 **** -0.24
17982 H 85.52729211163201 71.05986271795888 21.754952083273267 H 0.0 **** 0.06
17983 H 85.94865768982218 70.7785415502423 23.460576955721443 H 0.0 **** 0.06
17984 H 86.5941602292053 69.70487482684293 22.196058813042754 H 0.0 **** 0.06
17985 H 84.86449030528914 69.64819861553602 22.613638391377982 H 0.0 **** 0.06
17986 C 38.6159677145306 104.41023888362076 98.48107506411961 C 0.0 **** -0.24
17987 H 38.892701632368016 103.7609512601141 99.31172819858534 H 0.0 **** 0.06
17988 H 38.17654681244031 103.81208523516517 97.68295090158497 H 0.0 **** 0.06
17989 H 39.50342870744822 104.92107348957894 98.1068535733977 H 0.0 **** 0.06
17990 H 37.88943144530157 105.14789985789656 98.82410294560054 H 0.0 **** 0.06
17991 C 33.285338781053426 103.495725681939 56.985327670245084 C 0.0 **** -0.24
17992 H 33.691724455745046 102.51809324618941 56.72690516873908 H 0.0 **** 0.06
17993 H 32.503452171319296 103.37766659579324 57.73553370080913 H 0.0 **** 0.06
17994 H 32.86640614860315 103.96207679064611 56.093687162516375 H 0.0 **** 0.06
17995 H 34.080750126190594 104.12631171167976 57.384482829029 H 0.0 **** 0.06
17996 C 49.60776189744831 25.191318866629246 56.53853306998502 C 0.0 **** -0.24
17997 H 49.89509382967944 24.293169698741195 55.9921255998688 H 0.0 **** 0.06
17998 H 50.414066213052195 25.923476132428533 56.485083598577475 H 0.0 **** 0.06
17999 H 49.41765060960867 24.936098055147312 57.5812356951249 H 0.0 **** 0.06
18000 H 48.70481487860255 25.612008575867293 56.096867453207565 H 0.0 **** 0.06
18001 C 5.3756857394741075 42.77839144172483 122.67015429153463 C 0.0 **** -0.24
18002 H 5.41135146652752 43.730407674796005 122.14087200780261 H 0.0 **** 0.06
18003 H 6.379623695521872 42.357694788989214 122.72981694127486 H 0.0 **** 0.06
18004 H 4.724322895547459 42.08833103059963 122.13287611737081 H 0.0 **** 0.06
18005 H 4.986619008021563 42.93648940325609 123.67567196131586 H 0.0 **** 0.06
18006 C 103.10811228602547 96.4547041025042 58.56962189420554 C 0.0 **** -0.24
18007 H 102.50179337453586 96.94576763182656 57.809216979237405 H 0.0 **** 0.06
18008 H 102.4629648068536 96.09176098830952 59.36973796981681 H 0.0 **** 0.06
18009 H 103.82638924025301 97.16676934779366 58.97653347400602 H 0.0 **** 0.06
18010 H 103.64147973864694 95.61598462763868 58.1239040134392 H 0.0 **** 0.06
18011 C 48.256643810650715 76.37795904891492 79.28747499706867 C 0.0 **** -0.24
18012 H 48.527125067293376 77.31362405919187 79.77802942643211 H 0.0 **** 0.06
18013 H 47.88294287005499 75.67292307000623 80.03116691839318 H 0.0 **** 0.06
18014 H 49.136069458511585 75.9582116638288 78.79843368615263 H 0.0 **** 0.06
18015 H 47.482588656365905 76.56727203033296 78.5445800815923 H 0.0 **** 0.06
18016 C 117.74127558929477 75.1528400784367 33.68007226403216 C 0.0 **** -0.24
18017 H 118.56269741634254 75.52943103865017 34.288905649419576 H 0.0 **** 0.06
18018 H 118.03513248678655 74.21052846897462 33.21680160284052 H 0.0 **** 0.06
18019 H 117.50048868246853 75.88004274530412 32.9036273285366 H 0.0 **** 0.06
18020 H 116.86648552154838 74.99195342033713 34.31020838714383 H 0.0 **** 0.06
18021 C 27.833487917760294 96.57454399668146 59.69067604555177 C 0.0 **** -0.24
18022 H 27.790608634561067 97.63276474246595 59.43196587171224 H 0.0 **** 0.06
18023 H 27.167021599161558 96.01371465868243 59.03512221410149 H 0.0 **** 0.06
18024 H 27.522598908187888 96.44041672319747 60.72601102642831 H 0.0 **** 0.06
18025 H 28.854125017213505 96.21266087559525 59.567622362829454 H 0.0 **** 0.06
18026 C 105.86580221731595 3.7006029570726753 39.193369574895996 C 0.0 **** -0.24
18027 H 105.21432550758479 2.827272229742249 39.14113607497136 H 0.0 **** 0.06
18028 H 105.93532273700143 4.160197297042004 38.207131428960224 H 0.0 **** 0.06
18029 H 106.85778518713352 3.3937689565422033 39.52298499050286 H 0.0 **** 0.06
18030 H 105.45330985230481 4.4188253972823475 39.901586528531936 H 0.0 **** 0.06
18031 C 9.415573899129896 31.763576973176015 72.80340588740209 C 0.0 **** -0.24
18032 H 8.724649220480842 31.24671895669823 72.13716523866628 H 0.0 **** 0.06
18033 H 10.311110332091602 32.047439043401795 72.24876939288549 H 0.0 **** 0.06
18034 H 9.691686467109406 31.102863382281328 73.62472681569876 H 0.0 **** 0.06
18035 H 8.93611447303364 32.65788601039117 73.20121828315858 H 0.0 **** 0.06
18036 C 12.802041486158828 50.079064163257826 78.83913204376591 C 0.0 **** -0.24
18037 H 13.16238615785835 50.48746887524595 77.89443364256158 H 0.0 **** 0.06
18038 H 11.72372264900909 50.22068131691822 78.9085276462875 H 0.0 **** 0.06
18039 H 13.290176983607324 50.59486749097522 79.66664665047938 H 0.0 **** 0.06
18040 H 13.03461709966956 49.01506177854026 78.88735277217324 H 0.0 **** 0.06
18041 C 109.81418839822018 88.37342447171935 4.776641899867538 C 0.0 **** -0.24
18042 H 109.02110954673932 87.86905484906865 5.328564828973569 H 0.0 **** 0.06
18043 H 109.37416814518926 89.09350291377226 4.086128347374316 H 0.0 **** 0.06
18044 H 110.39131619313653 87.63863156724287 4.215596816976326 H 0.0 **** 0.06
18045 H 110.46945968781998 88.89297304019428 5.475139917953733 H 0.0 **** 0.06
18046 C 17.16862750053025 110.82376616574025 93.24579232340344 C 0.0 **** -0.24
18047 H 17.13750249228181 109.73809622830242 93.15038916528371 H 0.0 **** 0.06
18048 H 17.132899954737695 111.27545347814697 92.25390529512711 H 0.0 **** 0.06
18049 H 18.089767458543832 111.11902284096502 93.74724853146571 H 0.0 **** 0.06
18050 H 16.311919894012362 111.16106178753337 93.82986636671708 H 0.0 **** 0.06
18051 C 99.86940005172013 76.98430225341149 62.18726993999496 C 0.0 **** -0.24
18052 H 99.55922676931348 76.28644348318663 62.96516928540956 H 0.0 **** 0.06
18053 H 99.1070759925295 77.02138992769751 61.409053876207736 H 0.0 **** 0.06
18054 H 100.81293120696967 76.65078308923222 61.75661744511956 H 0.0 **** 0.06
18055 H 99.9976853011895 77.97599819041295 62.61958313804473 H 0.0 **** 0.06
18056 C 41.8859190387239 40.18046523325762 14.900746413038519 C 0.0 **** -0.24
18057 H 41.865751346824396 39.167602671725675 15.304558832662849 H 0.0 **** 0.06
18058 H 40.96037192887272 40.693469777210595 15.164660537868087 H 0.0 **** 0.06
18059 H 41.98115426846758 40.137918426114595 13.816166919179295 H 0.0 **** 0.06
18060 H 42.733797450926204 40.72148298419506 15.31941887816862 H 0.0 **** 0.06
18061 C 50.689657345486495 24.598267653269005 8.51094486879768 C 0.0 **** -0.24
18062 H 50.240974344329715 25.39363744487173 7.91635246032358 H 0.0 **** 0.06
18063 H 49.90383268548783 24.03575597449901 9.016083439683378 H 0.0 **** 0.06
18064 H 51.35945751865134 25.03397989256706 9.25328465421482 H 0.0 **** 0.06
18065 H 51.25383933317883 23.93080068730032 7.859642146445577 H 0.0 **** 0.06
18066 C 96.85914334997705 51.88512410749473 83.325137824737 C 0.0 **** -0.24
18067 H 96.23145471716828 52.184969912312795 82.48565929097504 H 0.0 **** 0.06
18068 H 97.90486669577541 52.081925735644745 83.08431293768331 H 0.0 **** 0.06
18069 H 96.72463248589895 50.82076436987637 83.51684296857383 H 0.0 **** 0.06
18070 H 96.57708236490032 52.45288458366201 84.21131574267292 H 0.0 **** 0.06
18071 C 0.4042281249791557 103.26442344167486 9.11193171462078 C 0.0 **** -0.24
18072 H 1.4233626007640368 103.63801892630201 9.204797063976912 H 0.0 **** 0.06
18073 H -0.02478049062131049 103.1289051292335 10.104080912346603 H 0.0 **** 0.06
18074 H 0.4147825768332325 102.30993013724782 8.5860716374968 H 0.0 **** 0.06
18075 H -0.19521794521737945 103.98113708494039 8.55093648330299 H 0.0 **** 0.06
18076 C 93.93547758155442 120.60590414513533 48.14729357212565 C 0.0 **** -0.24
18077 H 93.55709173630005 121.13498860061709 47.272915808518064 H 0.0 **** 0.06
18078 H 93.10293021591227 120.1540455850961 48.68692534917432 H 0.0 **** 0.06
18079 H 94.45459462483782 121.30804070983906 48.80009176061617 H 0.0 **** 0.06
18080 H 94.62769809295305 119.82634370028023 47.82834841902991 H 0.0 **** 0.06
18081 C 33.767721889909865 22.595740255136377 30.893282979897975 C 0.0 **** -0.24
18082 H 34.32514041678286 22.112503412258064 31.695504539094657 H 0.0 **** 0.06
18083 H 33.148588708477405 21.85611379566663 30.38567928848593 H 0.0 **** 0.06
18084 H 34.46574908386634 23.03718057401784 30.181880706980337 H 0.0 **** 0.06
18085 H 33.13260668404325 23.376434531464895 31.312076290221697 H 0.0 **** 0.06
18086 C 36.30374215766386 81.47219164981627 57.23276894718934 C 0.0 **** -0.24
18087 H 35.82125075311393 82.38127439414558 57.59184876988046 H 0.0 **** 0.06
18088 H 37.360991490214474 81.49371094919996 57.49680960282143 H 0.0 **** 0.06
18089 H 36.20015037261123 81.40953405256596 56.14906994560812 H 0.0 **** 0.06
18090 H 35.83095841806596 80.60473875062317 57.692970743449905 H 0.0 **** 0.06
18091 C 65.85483823872393 88.62027591009647 113.42034521982674 C 0.0 **** -0.24
18092 H 66.80626387996087 88.78903665204206 113.92496664291662 H 0.0 **** 0.06
18093 H 65.79535637363672 87.579931958956 113.09758961384074 H 0.0 **** 0.06
18094 H 65.78346452825791 89.27477742844496 112.55117359860026 H 0.0 **** 0.06
18095 H 65.03646811123744 88.835471241629 114.10687487764835 H 0.0 **** 0.06
18096 C 116.3788472016069 6.8379794901215405 101.37112626406004 C 0.0 **** -0.24
18097 H 116.5038886019588 7.391874761814364 102.3012070939814 H 0.0 **** 0.06
18098 H 115.3356289093901 6.885390865597174 101.057130214295 H 0.0 **** 0.06
18099 H 116.66586845196909 5.79861581619582 101.52545246061644 H 0.0 **** 0.06
18100 H 117.01127520683909 7.278840539600225 100.59912809151774 H 0.0 **** 0.06
18101 C 41.74460854003763 60.64320881433973 75.10732406080974 C 0.0 **** -0.24
18102 H 42.36071561061982 61.2821164086442 75.73971859726495 H 0.0 **** 0.06
18103 H 40.691634352849235 60.85959785488511 75.2872180369156 H 0.0 **** 0.06
18104 H 41.94651290432546 59.59727023146323 75.3418425121878 H 0.0 **** 0.06
18105 H 41.98039054083574 60.83206409488622 74.05945083266182 H 0.0 **** 0.06
18106 C 8.893464342844027 117.73886776484062 100.99203274383258 C 0.0 **** -0.24
18107 H 7.968791339519498 117.49328973669584 100.4698364478511 H 0.0 **** 0.06
18108 H 9.693383253215188 117.88226663256444 100.26476437818262 H 0.0 **** 0.06
18109 H 9.156640495101271 116.92509062797892 101.66684436580647 H 0.0 **** 0.06
18110 H 8.754473205695888 118.65559244316958 101.56466439557744 H 0.0 **** 0.06
18111 C 39.17608415139392 77.2770622505665 16.534002071037946 C 0.0 **** -0.24
18112 H 39.023241570921584 76.76959763549289 15.581475157121986 H 0.0 **** 0.06
18113 H 38.21842541018776 77.38926432513267 17.04264453266697 H 0.0 **** 0.06
18114 H 39.610064356881026 78.26096950254811 16.35573986952471 H 0.0 **** 0.06
18115 H 39.85196461605284 76.68862441937371 17.154552815368447 H 0.0 **** 0.06
18116 C 48.358916434525725 117.48843217801654 56.874293987677476 C 0.0 **** -0.24
18117 H 48.22172214358406 118.30214325102911 57.584955376705594 H 0.0 **** 0.06
18118 H 48.378397875203575 117.89138767746442 55.86115919675842 H 0.0 **** 0.06
18119 H 47.53419321844055 116.78097121359548 56.96792827244802 H 0.0 **** 0.06
18120 H 49.299652794890164 116.97866150961357 57.0814621685054 H 0.0 **** 0.06
18121 C 46.47907820774779 63.38424139522883 106.664158555693 C 0.0 **** -0.24
18122 H 45.976842020607734 62.49832964538905 106.27519595417363 H 0.0 **** 0.06
18123 H 46.38310969767616 64.20063694948448 105.94863145693796 H 0.0 **** 0.06
18124 H 47.53403369571984 63.16177663928812 106.82477942659403 H 0.0 **** 0.06
18125 H 46.02133869792621 63.67467721953142 107.61040130568398 H 0.0 **** 0.06
18126 C 92.73649829444037 72.12483234408964 25.06371149955845 C 0.0 **** -0.24
18127 H 92.62349100917629 72.7866802459238 24.205073966176485 H 0.0 **** 0.06
18128 H 91.80395786134557 71.58754631496257 25.23368715136047 H 0.0 **** 0.06
18129 H 92.9826020018343 72.71513035355079 25.946986649676546 H 0.0 **** 0.06
18130 H 93.53790899327109 71.41222218905892 24.86883111820117 H 0.0 **** 0.06
18131 C 23.02425201979395 9.546940516924817 78.67161957751694 C 0.0 **** -0.24
18132 H 22.635695971248538 10.489340767645281 78.28541279411871 H 0.0 **** 0.06
18133 H 24.113146856458798 9.587563563337657 78.69994822231914 H 0.0 **** 0.06
18134 H 22.707111336044136 8.73059611166503 78.02266402605352 H 0.0 **** 0.06
18135 H 22.63960711311671 9.381949879987655 79.67869165060984 H 0.0 **** 0.06
18136 C 25.44048277732088 71.4817052266535 68.53225667267651 C 0.0 **** -0.24
18137 H 25.804622043519487 72.17881522009364 69.28611733129043 H 0.0 **** 0.06
18138 H 26.04271124835111 71.5751230420324 67.62828614632122 H 0.0 **** 0.06
18139 H 24.39931224015578 71.70751281994214 68.300533597494 H 0.0 **** 0.06
18140 H 25.513816279099444 70.46283190326827 68.91472254618549 H 0.0 **** 0.06
18141 C 20.09640995740736 95.28338422657262 34.7142813908701 C 0.0 **** -0.24
18142 H 19.811184476597305 96.23251862163096 34.25950992975797 H 0.0 **** 0.06
18143 H 21.18297653747075 95.19620649798102 34.721685943894755 H 0.0 **** 0.06
18144 H 19.669616282408512 94.46259320476312 34.138120867254514 H 0.0 **** 0.06
18145 H 19.720775542960126 95.2437821008719 35.736636590125414 H 0.0 **** 0.06
18146 C 2.67149237811274 37.06367876568436 65.46276849783933 C 0.0 **** -0.24
18147 H 3.4078847741134837 37.13600725922794 66.26350351409769 H 0.0 **** 0.06
18148 H 2.7669255252821756 37.92582312889064 64.80246755560766 H 0.0 **** 0.06
18149 H 1.6703035209462467 37.04340712979334 65.89291571078805 H 0.0 **** 0.06
18150 H 2.841941994970263 36.14915276463965 64.89435856658504 H 0.0 **** 0.06
18151 C 61.50219158080847 116.73100920497416 48.78558061824498 C 0.0 **** -0.24
18152 H 61.54873442861464 117.34753783717699 47.88790811929297 H 0.0 **** 0.06
18153 H 62.24967364421917 115.93930316741864 48.72162826647403 H 0.0 **** 0.06
18154 H 60.5101024568084 116.28908589337746 48.870907020263786 H 0.0 **** 0.06
18155 H 61.70132879738469 117.34946258358062 49.66174075508229 H 0.0 **** 0.06
18156 C 87.0053945556239 80.3292759003633 31.61880904396952 C 0.0 **** -0.24
18157 H 87.4643211666801 81.31641320703793 31.56249725961092 H 0.0 **** 0.06
18158 H 87.76199311152251 79.59258083659175 31.888454557212896 H 0.0 **** 0.06
18159 H 86.57648573880819 80.07231266570214 30.64980343191479 H 0.0 **** 0.06
18160 H 86.21915032888194 80.33671720694056 32.37436010315665 H 0.0 **** 0.06
18161 C 73.44029998326394 0.14540973470077745 32.534918023406306 C 0.0 **** -0.24
18162 H 74.04953722323226 -0.757099122205446 32.47252783834824 H 0.0 **** 0.06
18163 H 73.7987223531649 0.7689063566308647 33.35506689308744 H 0.0 **** 0.06
18164 H 72.40162918925664 -0.12962725123207974 32.714314980090506 H 0.0 **** 0.06
18165 H 73.51370362976512 0.6980125753652118 31.598191959819985 H 0.0 **** 0.06
18166 C 27.815551997271143 120.93420005514619 11.311754214376805 C 0.0 **** -0.24
18167 H 28.170572020954808 120.08524192927226 10.727145273589002 H 0.0 **** 0.06
18168 H 27.11238287348789 121.5165286230559 10.715919208156947 H 0.0 **** 0.06
18169 H 28.66172757449948 121.56074473618307 11.591936846007854 H 0.0 **** 0.06
18170 H 27.317661297613483 120.57210178421275 12.211551096748309 H 0.0 **** 0.06
18171 C 61.646429517582064 39.75622726320559 106.13261823739543 C 0.0 **** -0.24
18172 H 61.45444607760375 40.667506671850546 105.56671906394924 H 0.0 **** 0.06
18173 H 62.631118735522406 39.81725045567781 106.59624743309615 H 0.0 **** 0.06
18174 H 61.613576191030816 38.89769029891901 105.46043392596648 H 0.0 **** 0.06
18175 H 60.88620399412616 39.64108522791303 106.9044330517853 H 0.0 **** 0.06
18176 C 113.08225021080122 41.17339002035256 36.662950496813494 C 0.0 **** -0.24
18177 H 112.09857323998813 40.735015175904124 36.828095173745226 H 0.0 **** 0.06
18178 H 112.9701484856462 42.163868198113676 36.22097772015178 H 0.0 **** 0.06
18179 H 113.65490342458943 40.53709019908911 35.987758988487144 H 0.0 **** 0.06
18180 H 113.60666940504169 41.257201324274575 37.615392064127604 H 0.0 **** 0.06
18181 C 103.71441106141907 102.39069473709205 86.19033658353244 C 0.0 **** -0.24
18182 H 103.09429461328449 102.20363413975859 85.31394990902777 H 0.0 **** 0.06
18183 H 103.378496678148 101.7626652792157 87.0149735887781 H 0.0 **** 0.06
18184 H 103.63232833114108 103.4403161049647 86.47509471440259 H 0.0 **** 0.06
18185 H 104.75368377123982 102.15812280479376 85.95537423175081 H 0.0 **** 0.06
18186 C 110.66214069825008 34.761148628281774 87.40373003654815 C 0.0 **** -0.24
18187 H 111.63194957022125 34.41403525147513 87.0482293688083 H 0.0 **** 0.06
18188 H 110.15069006069808 33.94634374140901 87.91700481056237 H 0.0 **** 0.06
18189 H 110.06182865344522 35.091080275279865 86.55558129360725 H 0.0 **** 0.06
18190 H 110.8050301987873 35.59307399148645 88.09304597628018 H 0.0 **** 0.06
18191 C 7.247730111211439 37.39500456251531 121.39171416222878 C 0.0 **** -0.24
18192 H 6.90578620606928 37.40876938566417 120.35700957520697 H 0.0 **** 0.06
18193 H 7.481688760327586 38.41005909666943 121.7112455384759 H 0.0 **** 0.06
18194 H 8.139676821313941 36.773523134400506 121.47133583225735 H 0.0 **** 0.06
18195 H 6.462308516623949 36.98531967232249 122.02786586355319 H 0.0 **** 0.06
18196 C 30.037053823872398 104.00119886154806 31.13555169437369 C 0.0 **** -0.24
18197 H 29.80329955436192 104.33320326809877 30.12349350549937 H 0.0 **** 0.06
18198 H 30.209812750312786 102.92492063188834 31.132861066555378 H 0.0 **** 0.06
18199 H 29.201802093923966 104.23443172115549 31.79586274627978 H 0.0 **** 0.06
18200 H 30.933052885699794 104.51305259627566 31.48792108745718 H 0.0 **** 0.06
18201 C 70.6590414734005 34.6339724781855 21.69191179688316 C 0.0 **** -0.24
18202 H 70.70295922979312 34.36660424221972 22.7482087351519 H 0.0 **** 0.06
18203 H 70.2255062056378 35.62831414711289 21.587813324012274 H 0.0 **** 0.06
18204 H 70.04208248664644 33.91019240971619 21.159897043492094 H 0.0 **** 0.06
18205 H 71.66584359987684 34.630000137448775 21.274616470319927 H 0.0 **** 0.06
18206 C 108.44291432874194 120.21311648112274 67.87168430171563 C 0.0 **** -0.24
18207 H 107.99139009171994 120.65673706006888 68.75978532175023 H 0.0 **** 0.06
18208 H 107.74820918215377 120.28859867198399 67.03427401764974 H 0.0 **** 0.06
18209 H 108.66681519491475 119.16386710805806 68.06484712562529 H 0.0 **** 0.06
18210 H 109.3641522231345 120.74266728315142 67.62968972822455 H 0.0 **** 0.06
18211 C 29.15814767010869 40.922226513298526 25.148259200912946 C 0.0 **** -0.24
18212 H 29.689926728055752 40.96033566670265 24.197761220493618 H 0.0 **** 0.06
18213 H 29.672917844744575 41.54597982377912 25.87932021321859 H 0.0 **** 0.06
18214 H 29.127209579403527 39.8922055812336 25.505282293804186 H 0.0 **** 0.06
18215 H 28.140350878832948 41.288759301745074 25.009911150219438 H 0.0 **** 0.06
18216 C 31.777720221373805 67.28991379878505 69.76849849167348 C 0.0 **** -0.24
18217 H 31.84643233889075 67.64244691276514 68.73905991168925 H 0.0 **** 0.06
18218 H 30.883908184432947 66.67682123250322 69.8830901350605 H 0.0 **** 0.06
18219 H 31.720194497259527 68.14549517118077 70.44085254651881 H 0.0 **** 0.06
18220 H 32.66056564542598 66.69708671461692 70.00895793436798 H 0.0 **** 0.06
18221 C 84.22551882689442 65.8881891801386 121.75355537712352 C 0.0 **** -0.24
18222 H 84.41692299125233 66.89324447645427 121.37647309112918 H 0.0 **** 0.06
18223 H 84.87123793193504 65.6934646540956 122.609860757739 H 0.0 **** 0.06
18224 H 84.43295901294957 65.16065549351552 120.96848146853159 H 0.0 **** 0.06
18225 H 83.18220046563161 65.80725591560744 122.05841814226426 H 0.0 **** 0.06
18226 C 7.003463349057693 78.7920767689427 115.93483570517893 C 0.0 **** -0.24
18227 H 6.57546140432056 78.44215105918329 116.87444416683299 H 0.0 **** 0.06
18228 H 6.487864982543549 78.31664250278936 115.10115757452412 H 0.0 **** 0.06
18229 H 8.062067009392191 78.53559221462422 115.90175036713637 H 0.0 **** 0.06
18230 H 6.8892833155133495 79.87384423509144 115.86429647335328 H 0.0 **** 0.06
18231 C 15.758554812942933 18.977290484827222 13.699400033853124 C 0.0 **** -0.24
18232 H 15.2050896244953 18.065530046762376 13.474555864958916 H 0.0 **** 0.06
18233 H 16.45751323709284 18.786887783216642 14.51401199972645 H 0.0 **** 0.06
18234 H 15.060996201260735 19.76216602766837 13.994747568411356 H 0.0 **** 0.06
18235 H 16.308823128720093 19.295898827202677 12.81412199410363 H 0.0 **** 0.06
18236 C 38.85088293973837 116.13529695020976 2.7043776565086546 C 0.0 **** -0.24
18237 H 38.258411680824565 116.44458393695174 3.5662344590027715 H 0.0 **** 0.06
18238 H 39.136199401872545 115.08921676486912 2.816357458746239 H 0.0 **** 0.06
18239 H 39.7465586642071 116.75208242129382 2.6385420516440092 H 0.0 **** 0.06
18240 H 38.25936898660575 116.25525734866937 1.796576759785438 H 0.0 **** 0.06
18241 C 84.91279347313132 30.0105791932096 108.30952249462098 C 0.0 **** -0.24
18242 H 85.69896788843499 30.094977044638817 109.05933344500392 H 0.0 **** 0.06
18243 H 84.97877532835545 30.8501420835587 107.61799648729163 H 0.0 **** 0.06
18244 H 83.9396811319058 30.02059479639822 108.80104441176178 H 0.0 **** 0.06
18245 H 85.03338109456742 29.076464715583384 107.76063499188382 H 0.0 **** 0.06
18246 C 90.37970660121042 62.422731216662726 59.43284915315361 C 0.0 **** -0.24
18247 H 91.16723355949622 63.05241097384675 59.847071810335365 H 0.0 **** 0.06
18248 H 89.54497026481025 62.37711999135797 60.13302957727848 H 0.0 **** 0.06
18249 H 90.7689545583294 61.41837703702436 59.265178552525356 H 0.0 **** 0.06
18250 H 90.03872096690114 62.8426376807239 58.487438674011585 H 0.0 **** 0.06
18251 C 82.47327912601295 4.07791630611203 64.16783927313821 C 0.0 **** -0.24
18252 H 83.05336963654135 3.3519021584345694 63.598401698798114 H 0.0 **** 0.06
18253 H 81.73616424995785 3.554587702341749 64.77788649011569 H 0.0 **** 0.06
18254 H 81.96408092063619 4.754497387334965 63.48109626066952 H 0.0 **** 0.06
18255 H 83.14070976396755 4.65008917805315 64.8135321911239 H 0.0 **** 0.06
18256 C 102.50385204438702 65.84812178734039 52.341382752760495 C 0.0 **** -0.24
18257 H 103.43863144077905 65.32836759022418 52.1314119008986 H 0.0 **** 0.06
18258 H 102.70756106280955 66.72551669139327 52.95556069794239 H 0.0 **** 0.06
18259 H 101.82819085349787 65.17901513452905 52.874628450889915 H 0.0 **** 0.06
18260 H 102.04368092835178 66.15819466655785 51.40400023775658 H 0.0 **** 0.06
18261 C 55.13272987073165 3.1641068909992267 31.08306088342465 C 0.0 **** -0.24
18262 H 56.1572883508606 3.1055076010090676 30.716784063621688 H 0.0 **** 0.06
18263 H 55.08854531771482 3.842583223399881 31.93464192181358 H 0.0 **** 0.06
18264 H 54.798618154041776 2.1726302691045287 31.38975814322987 H 0.0 **** 0.06
18265 H 54.484354710424924 3.535627545270339 30.28918067072911 H 0.0 **** 0.06
18266 C 80.76023585487954 88.63369109337458 19.82906150985673 C 0.0 **** -0.24
18267 H 80.43848642453978 87.72135681271243 20.331582342882456 H 0.0 **** 0.06
18268 H 80.00592660505751 89.4083998417293 19.967331633739292 H 0.0 **** 0.06
18269 H 80.88843295951199 88.43647924114927 18.7649324419954 H 0.0 **** 0.06
18270 H 81.70694521996734 88.96802976513713 20.2539565123175 H 0.0 **** 0.06
18271 C 4.173442544641873 18.05941501699715 6.012771084859775 C 0.0 **** -0.24
18272 H 5.22771905093018 18.185847013010857 5.764332430662996 H 0.0 **** 0.06
18273 H 3.8220941234138444 18.935064930624435 6.559078921767739 H 0.0 **** 0.06
18274 H 4.051451195241494 17.170534487904916 6.632391344827365 H 0.0 **** 0.06
18275 H 3.596053805211879 17.94632307900838 5.095914447196318 H 0.0 **** 0.06
18276 C 110.7661145382263 18.961121996401328 71.90637936181429 C 0.0 **** -0.24
18277 H 111.61242064096092 18.973389526806095 71.2203071058569 H 0.0 **** 0.06
18278 H 111.08209440081981 19.332945832314856 72.88081070484765 H 0.0 **** 0.06
18279 H 110.3961652732865 17.940697545060353 72.00864965839719 H 0.0 **** 0.06
18280 H 109.971690719224 19.596814610310105 71.51463909814959 H 0.0 **** 0.06
18281 C 33.71376968172737 115.81673380515275 1.3472811462085907 C 0.0 **** -0.24
18282 H 33.22218130949719 116.5040696347923 2.035539832951512 H 0.0 **** 0.06
18283 H 33.33681648033692 114.80724906765437 1.5113895092900549 H 0.0 **** 0.06
18284 H 34.789932482207206 115.8356382816583 1.5212610001183737 H 0.0 **** 0.06
18285 H 33.50666082382892 116.12080401926397 0.3211700697612887 H 0.0 **** 0.06
18286 C 44.10450019804108 71.60414104012185 74.78366113152977 C 0.0 **** -0.24
18287 H 43.76843332180104 70.9020654332343 75.54711554192528 H 0.0 **** 0.06
18288 H 44.04333612127134 72.62008263848932 75.17430848136165 H 0.0 **** 0.06
18289 H 43.46986255281763 71.51447650443723 73.90270711906804 H 0.0 **** 0.06
18290 H 45.13657113270078 71.37983103596363 74.5129521537341 H 0.0 **** 0.06
18291 C 70.06353342872015 122.6957042526875 49.64272460273284 C 0.0 **** -0.24
18292 H 69.84933260249971 121.63021337211902 49.72157165242919 H 0.0 **** 0.06
18293 H 69.91203263299202 123.02043478268918 48.61258656419787 H 0.0 **** 0.06
18294 H 71.09684591412852 122.88139830835252 49.93456136159298 H 0.0 **** 0.06
18295 H 69.39428807351 123.25014847820643 50.300785371366544 H 0.0 **** 0.06
18296 C 97.66039400954469 17.55982495734878 88.74931544611933 C 0.0 **** -0.24
18297 H 97.50704057405676 17.0272489995686 89.68853764768306 H 0.0 **** 0.06
18298 H 97.13032309897073 18.51219122220084 88.78234703950055 H 0.0 **** 0.06
18299 H 97.2783358227195 16.95817554741666 87.92408561014952 H 0.0 **** 0.06
18300 H 98.72541605223915 17.740874929493316 88.60406164836942 H 0.0 **** 0.06
18301 C 99.79763000643442 114.9784592769233 48.881749256918795 C 0.0 **** -0.24
18302 H 99.72631993112867 114.45436457763896 47.92861372976414 H 0.0 **** 0.06
18303 H 98.83377769213558 115.42682274357074 49.12276922835551 H 0.0 **** 0.06
18304 H 100.5548981648987 115.75930424508681 48.81180086866756 H 0.0 **** 0.06
18305 H 100.07523514573086 114.27223767361411 49.66464335878209 H 0.0 **** 0.06
18306 C 31.636524186968302 48.01582138189876 106.35958931952956 C 0.0 **** -0.24
18307 H 30.56630693932496 47.83321271685872 106.26204531932979 H 0.0 **** 0.06
18308 H 31.970849363312823 47.695642642422385 107.34607800329945 H 0.0 **** 0.06
18309 H 31.83616363530777 49.0800300435886 106.23450647154465 H 0.0 **** 0.06
18310 H 32.171337417737135 47.45322173146954 105.59413378974529 H 0.0 **** 0.06
18311 C 20.37984458488475 47.851287411424295 40.67041480868145 C 0.0 **** -0.24
18312 H 20.876168148955884 48.61287969347518 41.27185543094097 H 0.0 **** 0.06
18313 H 20.871795213304296 46.89019680891775 40.82295066338826 H 0.0 **** 0.06
18314 H 20.438273160261986 48.12570765345774 39.61651518807638 H 0.0 **** 0.06
18315 H 19.334590811408532 47.776176629881576 40.968972316328454 H 0.0 **** 0.06
18316 C 105.84205782398234 8.304775328165356 117.50145135804897 C 0.0 **** -0.24
18317 H 105.19537416422239 7.653535511017921 118.09007321342537 H 0.0 **** 0.06
18318 H 105.95566082542913 7.894236519345576 116.49805115871982 H 0.0 **** 0.06
18319 H 106.81933999693135 8.373543001043714 117.97934807661474 H 0.0 **** 0.06
18320 H 105.39711440609298 9.298144863193652 117.4406397821478 H 0.0 **** 0.06
18321 C 81.68286330127523 29.690642240742847 37.17136928293144 C 0.0 **** -0.24
18322 H 80.70965224988389 29.78310309545148 37.65403063031886 H 0.0 **** 0.06
18323 H 81.5460733180408 29.38985123712581 36.1327293202682 H 0.0 **** 0.06
18324 H 82.27575358290008 28.938962509005734 37.692774517009866 H 0.0 **** 0.06
18325 H 82.19957204803373 30.649702369232187 37.20792675836594 H 0.0 **** 0.06
18326 C 61.03956892083613 91.61899693792219 87.06073665678133 C 0.0 **** -0.24
18327 H 61.07430300166811 92.09387089416998 86.08104798657331 H 0.0 **** 0.06
18328 H 61.71619224860166 92.13910461666876 87.74060334454344 H 0.0 **** 0.06
18329 H 61.344993962025654 90.5763973446401 86.97090150973082 H 0.0 **** 0.06
18330 H 60.02372518989867 91.66758115400427 87.45217856102914 H 0.0 **** 0.06
18331 C 27.698264076303985 4.175014841738346 87.98038959142912 C 0.0 **** -0.24
18332 H 28.480758891817004 4.730721557202173 88.49618952016996 H 0.0 **** 0.06
18333 H 27.498948944823013 3.246541994576077 88.51636571849932 H 0.0 **** 0.06
18334 H 28.02284291664523 3.9458703624139275 86.96474882825379 H 0.0 **** 0.06
18335 H 26.789330584190708 4.776154185376043 87.94409712157517 H 0.0 **** 0.06
18336 C 70.50539873790677 40.365061051656824 53.61351914986888 C 0.0 **** -0.24
18337 H 70.31247637885781 41.10003286453525 54.39547512383288 H 0.0 **** 0.06
18338 H 70.97733896019429 40.85601266151002 52.76265157449535 H 0.0 **** 0.06
18339 H 69.5629782242051 39.91681526233236 53.29817645175416 H 0.0 **** 0.06
18340 H 71.1663220095682 39.58959649831252 54.000213914307395 H 0.0 **** 0.06
18341 C 11.083945173960785 95.04145787042034 81.8120596732042 C 0.0 **** -0.24
18342 H 11.360927239531552 94.13032301421481 81.28088835818926 H 0.0 **** 0.06
18343 H 11.421637784490581 94.97512525869257 82.84611014137458 H 0.0 **** 0.06
18344 H 10.000811189540435 95.16017768313682 81.78956372642551 H 0.0 **** 0.06
18345 H 11.552840332456661 95.8988367627158 81.3299627600825 H 0.0 **** 0.06
18346 C 104.58380896238356 111.24542485758096 77.49831421266754 C 0.0 **** -0.24
18347 H 104.87638620008028 111.10656817527143 76.45705961268682 H 0.0 **** 0.06
18348 H 103.70800663623032 111.8934815027298 77.54537414539234 H 0.0 **** 0.06
18349 H 105.40581063270344 111.70429921305349 78.04725524720465 H 0.0 **** 0.06
18350 H 104.34555603715955 110.2786391598748 77.94009423179388 H 0.0 **** 0.06
18351 C 35.4068480473851 37.27112547506374 90.65236831425699 C 0.0 **** -0.24
18352 H 35.99076160866764 36.99760850852908 89.77372327105601 H 0.0 **** 0.06
18353 H 36.05994059636561 37.731920675007586 91.39359542030886 H 0.0 **** 0.06
18354 H 34.948416957475644 36.37787142315051 91.07626785761173 H 0.0 **** 0.06
18355 H 34.62835445708808 37.97777733405104 90.36375677694235 H 0.0 **** 0.06
18356 C 44.23328360116324 88.45290003240419 18.56014968268792 C 0.0 **** -0.24
18357 H 44.75825979868792 87.50266410403998 18.665721766470654 H 0.0 **** 0.06
18358 H 43.65151640563113 88.64811817358638 19.461031760023104 H 0.0 **** 0.06
18359 H 43.5655958731038 88.40486397287117 17.69917731915345 H 0.0 **** 0.06
18360 H 44.95785546547043 89.25372920618382 18.414461914912323 H 0.0 **** 0.06
18361 C 81.14022848137654 118.89382763791943 58.58582410959947 C 0.0 **** -0.24
18362 H 80.06268251363764 118.83647713425762 58.430965048325604 H 0.0 **** 0.06
18363 H 81.42751513068623 119.930342881618 58.76463204823192 H 0.0 **** 0.06
18364 H 81.65481283510508 118.52243073933121 57.69886747898697 H 0.0 **** 0.06
18365 H 81.4155658689736 118.28596160240758 59.44713582025422 H 0.0 **** 0.06
18366 C 110.9511622985195 47.606561543991916 100.39696592269871 C 0.0 **** -0.24
18367 H 110.13743685772945 46.94294662018328 100.69163678088215 H 0.0 **** 0.06
18368 H 110.74766218788312 48.01061964731991 99.40508161341123 H 0.0 **** 0.06
18369 H 111.88679982972235 47.047138825615804 100.37700658361891 H 0.0 **** 0.06
18370 H 111.03076625329936 48.423584335279514 101.11365389100376 H 0.0 **** 0.06
18371 C 104.02285644932851 116.69398461979809 24.384035302269524 C 0.0 **** -0.24
18372 H 103.24731221427754 116.78311484415023 25.144943092524557 H 0.0 **** 0.06
18373 H 103.77963036204 117.33969731805404 23.54024273999113 H 0.0 **** 0.06
18374 H 104.08315701627009 115.66009683799366 24.045746159382304 H 0.0 **** 0.06
18375 H 104.98216501509123 116.99438058443978 24.806781215706053 H 0.0 **** 0.06
18376 C 66.7672690628724 96.51681306087355 110.25045666229578 C 0.0 **** -0.24
18377 H 67.43864157578321 95.65980385294931 110.29861102374066 H 0.0 **** 0.06
18378 H 67.1859756091335 97.33950165430414 110.82964401188843 H 0.0 **** 0.06
18379 H 65.79539065636231 96.24025192073063 110.66007238977313 H 0.0 **** 0.06
18380 H 66.64873971754025 96.82697159019135 109.21196004635861 H 0.0 **** 0.06
18381 C 72.84217726243273 37.45273550202083 8.610356853587533 C 0.0 **** -0.24
18382 H 73.01054664439074 38.16907052743417 9.415257876405605 H 0.0 **** 0.06
18383 H 73.50408064544919 36.59718092153176 8.743048061525116 H 0.0 **** 0.06
18384 H 73.04994598098749 37.9289582864842 7.652256276383255 H 0.0 **** 0.06
18385 H 71.80525240018801 37.11801897508735 8.632992343344455 H 0.0 **** 0.06
18386 C 3.3877835900194384 105.79961617953194 74.54902515730525 C 0.0 **** -0.24
18387 H 3.7250126141956486 104.86343723187179 74.10367777492874 H 0.0 **** 0.06
18388 H 3.510868140054697 106.60917751704443 73.82996096400989 H 0.0 **** 0.06
18389 H 3.979000971648091 106.01096691059183 75.44058033535292 H 0.0 **** 0.06
18390 H 2.3368748038218854 105.71189002999802 74.82351107267657 H 0.0 **** 0.06
18391 C 65.20140467792828 15.49479551154701 111.14439037438967 C 0.0 **** -0.24
18392 H 65.13029917945732 14.430698139465392 111.37200969499287 H 0.0 **** 0.06
18393 H 64.53721110243049 16.051843313467543 111.80594717609455 H 0.0 **** 0.06
18394 H 64.91103706847639 15.665393746863629 110.10859575032543 H 0.0 **** 0.06
18395 H 66.2279161039736 15.829604648198028 111.29426315728347 H 0.0 **** 0.06
18396 C 102.60053598782073 84.37896537279714 42.841034498366405 C 0.0 **** -0.24
18397 H 102.58496521193852 83.3466273559249 43.191138054777625 H 0.0 **** 0.06
18398 H 101.5878276529259 84.78344103678606 42.858471434921306 H 0.0 **** 0.06
18399 H 102.98804066173781 84.41172538260778 41.823212525799576 H 0.0 **** 0.06
18400 H 103.24058111690194 84.97322063096416 43.49263912504786 H 0.0 **** 0.06
18401 C 17.258958763219113 64.64574271218143 84.5472844346418 C 0.0 **** -0.24
18402 H 17.424165742732015 63.577517436776276 84.69141000231248 H 0.0 **** 0.06
18403 H 17.16039601719197 65.13204837422862 85.51768841439561 H 0.0 **** 0.06
18404 H 16.34780031304416 64.79790435572846 83.96988098135778 H 0.0 **** 0.06
18405 H 18.105582234658925 65.07429761176174 84.01048081245357 H 0.0 **** 0.06
18406 C 21.92895550784897 119.9638421668345 114.64687539278853 C 0.0 **** -0.24
18407 H 22.126454920758647 118.90841658755181 114.83188210847256 H 0.0 **** 0.06
18408 H 21.63472112762952 120.4467284173445 115.57881139593316 H 0.0 **** 0.06
18409 H 21.124739669040423 120.05992596967928 113.9172600784565 H 0.0 **** 0.06
18410 H 22.829438494585247 120.43910397425 114.25895108931705 H 0.0 **** 0.06
18411 C 45.73677396659073 17.45896578767065 81.19360485190043 C 0.0 **** -0.24
18412 H 45.60164175819207 16.442863220762035 81.56338929275401 H 0.0 **** 0.06
18413 H 45.70218910922051 17.45631859653949 80.10369538736447 H 0.0 **** 0.06
18414 H 46.70106221284723 17.841322750076813 81.52588778926207 H 0.0 **** 0.06
18415 H 44.94016015200742 18.094464833174015 81.58127627840196 H 0.0 **** 0.06
18416 C 0.8106748147747851 85.28328973728662 120.59817553070636 C 0.0 **** -0.24
18417 H 0.5198329011583951 84.78196522840074 121.52088425098063 H 0.0 **** 0.06
18418 H 1.6541396149930563 84.75855098824411 120.15020784371008 H 0.0 **** 0.06
18419 H 1.097092256083414 86.31178576461303 120.8191816601922 H 0.0 **** 0.06
18420 H -0.02968487109259854 85.2822898053015 119.9039138285688 H 0.0 **** 0.06
18421 C 22.942393781771642 91.91216857994615 22.96493591814729 C 0.0 **** -0.24
18422 H 23.751300446054444 92.61011077635757 22.751145470606616 H 0.0 **** 0.06
18423 H 23.223248803631492 90.91525996868268 22.62522076526068 H 0.0 **** 0.06
18424 H 22.039096255681613 92.23278653581691 22.444578840290518 H 0.0 **** 0.06
18425 H 22.754595396548666 91.8903450024483 24.038362300783604 H 0.0 **** 0.06
18426 C 91.31131188029968 104.33899043746868 11.813688953869388 C 0.0 **** -0.24
18427 H 91.91757335149106 103.5265665462835 11.414048974020641 H 0.0 **** 0.06
18428 H 91.61331083232842 104.54759299350502 12.840547936516082 H 0.0 **** 0.06
18429 H 90.25986999518713 104.04954529045159 11.796217342459165 H 0.0 **** 0.06
18430 H 91.45261122797362 105.23127419740717 11.20464311163337 H 0.0 **** 0.06
18431 C 17.993980436855622 84.43899920965623 105.46711205058341 C 0.0 **** -0.24
18432 H 18.929950355820665 84.99925103829298 105.4356151123448 H 0.0 **** 0.06
18433 H 17.48596008715475 84.52734646356743 104.50657948159761 H 0.0 **** 0.06
18434 H 17.356733277181434 84.84153681945025 106.25463236671226 H 0.0 **** 0.06
18435 H 18.206051671978287 83.38993716762829 105.6715632368169 H 0.0 **** 0.06
18436 C 64.26606609184796 65.21906998105786 1.3740306042938126 C 0.0 **** -0.24
18437 H 64.6453581254948 64.73262436260717 2.273146260577132 H 0.0 **** 0.06
18438 H 64.71667770608991 64.75725632517677 0.49477575066752877 H 0.0 **** 0.06
18439 H 64.51990039629425 66.27804044950729 1.399610170891199 H 0.0 **** 0.06
18440 H 63.18252255371914 65.10542502395586 1.329186658112489 H 0.0 **** 0.06
18441 C 0.6929343523425473 86.36466974490529 115.82154744976918 C 0.0 **** -0.24
18442 H -0.11047720060594202 85.69062657922237 116.11963539717152 H 0.0 **** 0.06
18443 H 1.6541930712198933 85.87189216362987 115.97528347508052 H 0.0 **** 0.06
18444 H 0.6484535355557597 87.27190900900017 116.42278866474453 H 0.0 **** 0.06
18445 H 0.5800388723614844 86.62054301957298 114.76831425927116 H 0.0 **** 0.06
18446 C 79.429291615949 56.84870217073052 29.60726103640758 C 0.0 **** -0.24
18447 H 78.66004679612696 56.226684841319724 30.063591498509794 H 0.0 **** 0.06
18448 H 79.88058313844292 56.31428223298212 28.77109058874133 H 0.0 **** 0.06
18449 H 80.19584170414595 57.080572815837286 30.347110823537264 H 0.0 **** 0.06
18450 H 78.9805725746066 57.774928909160224 29.246772455867614 H 0.0 **** 0.06
18451 C 9.358605427231119 88.52604916763661 20.133943048113295 C 0.0 **** -0.24
18452 H 9.041141678560638 87.8335174099393 19.354601517469362 H 0.0 **** 0.06
18453 H 10.063046049089706 88.02549080498778 20.799061459061903 H 0.0 **** 0.06
18454 H 8.489394492114183 88.85331155304704 20.704575501038065 H 0.0 **** 0.06
18455 H 9.839790387633123 89.39093916257201 19.6773918102473 H 0.0 **** 0.06
18456 C 122.28642441439885 87.99666203540988 102.11609526903186 C 0.0 **** -0.24
18457 H 121.81276984221307 87.86842908598189 103.08875774780972 H 0.0 **** 0.06
18458 H 122.60482692337908 87.02530096670449 101.73639634001051 H 0.0 **** 0.06
18459 H 123.15369325277774 88.64894146616157 102.21792850245714 H 0.0 **** 0.06
18460 H 121.57571225567568 88.44344507693984 101.42117381760193 H 0.0 **** 0.06
18461 C 119.1682862872641 47.77678350058736 13.446103687381907 C 0.0 **** -0.24
18462 H 118.73993395044221 48.75943018177658 13.251646962797196 H 0.0 **** 0.06
18463 H 119.90993639134001 47.54593029379251 12.68038330047105 H 0.0 **** 0.06
18464 H 118.3782186747656 47.02598903048651 13.42441145962988 H 0.0 **** 0.06
18465 H 119.64431530627053 47.77544261091985 14.426817865114998 H 0.0 **** 0.06
18466 C 117.35885308655111 104.80349749353232 95.60358834088106 C 0.0 **** -0.24
18467 H 116.75250364675247 105.04156877769861 96.4781923599489 H 0.0 **** 0.06
18468 H 117.64681666625464 103.75235467162666 95.63658069204473 H 0.0 **** 0.06
18469 H 118.25426716779029 105.42638623718436 95.60340967035407 H 0.0 **** 0.06
18470 H 116.7827694954018 104.99595964982088 94.69898363475272 H 0.0 **** 0.06
18471 C 50.39450870888368 21.006215311120997 55.65044460927274 C 0.0 **** -0.24
18472 H 50.189816279706044 20.858795442895683 56.71140557064163 H 0.0 **** 0.06
18473 H 50.06280883329717 22.001373408235693 55.35260184289211 H 0.0 **** 0.06
18474 H 49.8593605548576 20.255143388492513 55.07023768467897 H 0.0 **** 0.06
18475 H 51.464743390188964 20.910294142570933 55.470315469570465 H 0.0 **** 0.06
18476 C 43.49177923258776 51.649242252385335 46.7581451694127 C 0.0 **** -0.24
18477 H 43.540257644527856 50.5620262124969 46.82114395462895 H 0.0 **** 0.06
18478 H 42.44957656310771 51.96655815690062 46.73265225649595 H 0.0 **** 0.06
18479 H 43.9961292622001 51.982535428122134 45.85148350109745 H 0.0 **** 0.06
18480 H 43.9833181575537 52.085024203758366 47.628097062056185 H 0.0 **** 0.06
18481 C 74.03394691563852 70.88333061851046 80.35597969143429 C 0.0 **** -0.24
18482 H 73.53619111072982 70.6947191352312 79.40490316334386 H 0.0 **** 0.06
18483 H 73.8169773392055 71.8993386555413 80.6850534730346 H 0.0 **** 0.06
18484 H 75.11046241210312 70.76263308167256 80.23314557119856 H 0.0 **** 0.06
18485 H 73.6713465171153 70.17495169876679 81.10205010402912 H 0.0 **** 0.06
18486 C 70.48581223299593 11.011490015376026 85.6325851855546 C 0.0 **** -0.24
18487 H 69.75181892966985 11.491003658176865 84.98454951340426 H 0.0 **** 0.06
18488 H 71.30494414277064 10.62263897085765 85.02773191183411 H 0.0 **** 0.06
18489 H 70.0126358610307 10.193164340134416 86.1745186421009 H 0.0 **** 0.06
18490 H 70.87280488549739 11.742137759856718 86.34353477500412 H 0.0 **** 0.06
18491 C 47.204656433326534 72.59737659666533 82.13946177637501 C 0.0 **** -0.24
18492 H 46.518552015122594 73.43134800267552 82.28926885176043 H 0.0 **** 0.06
18493 H 46.832870178247276 71.7205061879935 82.67032712574417 H 0.0 **** 0.06
18494 H 48.189787910210185 72.86354773757031 82.5215109363624 H 0.0 **** 0.06
18495 H 47.27591511769239 72.37312169208582 81.07507197231052 H 0.0 **** 0.06
18496 C 89.55900225540509 48.13009105426518 66.67543835141042 C 0.0 **** -0.24
18497 H 88.48603236758888 47.99923631347818 66.53571593594575 H 0.0 **** 0.06
18498 H 89.99552678502127 48.54713837969828 65.76779548060239 H 0.0 **** 0.06
18499 H 90.01751430623884 47.16488254025086 66.89003313362069 H 0.0 **** 0.06
18500 H 89.73539750803135 48.81063555607645 67.5093482305845 H 0.0 **** 0.06
18501 C 78.15364192647041 38.69956939992554 47.43067730916629 C 0.0 **** -0.24
18502 H 77.88686300481936 38.30721088086568 48.41099225905658 H 0.0 **** 0.06
18503 H 78.76856006570478 39.59200273240148 47.552592062566106 H 0.0 **** 0.06
18504 H 77.24662522707246 38.95500026988924 46.88223449762934 H 0.0 **** 0.06
18505 H 78.71293481747745 37.94571149004389 46.87655509880001 H 0.0 **** 0.06
18506 C 100.27832737825753 17.464639205837983 118.13825333766951 C 0.0 **** -0.24
18507 H 99.78058436897885 17.94040213527552 118.98378411061276 H 0.0 **** 0.06
18508 H 99.63444711381933 17.520075787090718 117.25965514887974 H 0.0 **** 0.06
18509 H 100.47805758192553 16.419550201471907 118.37649390196643 H 0.0 **** 0.06
18510 H 101.21798023116196 17.97716507817961 117.93413961972371 H 0.0 **** 0.06
18511 C 39.94429654792858 117.91248523998459 58.17548538687521 C 0.0 **** -0.24
18512 H 40.29757735772419 117.01195361013538 57.67536036102467 H 0.0 **** 0.06
18513 H 39.62782534360742 117.6652322859552 59.189274177374955 H 0.0 **** 0.06
18514 H 39.101657858857266 118.32828658150896 57.62360319013413 H 0.0 **** 0.06
18515 H 40.74969139517219 118.64541146838314 58.21568434521765 H 0.0 **** 0.06
18516 C 86.92506202802369 113.49890740549849 53.56013606891253 C 0.0 **** -0.24
18517 H 87.46596461041204 112.93779519161482 54.32125899808017 H 0.0 **** 0.06
18518 H 87.23075885188106 113.15773616054824 52.57063650527891 H 0.0 **** 0.06
18519 H 87.15053869557894 114.56048167801683 53.66421810743822 H 0.0 **** 0.06
18520 H 85.85380834643746 113.34168927941928 53.68459771351441 H 0.0 **** 0.06
18521 C 29.563080319582767 114.34589268155254 18.90328410723984 C 0.0 **** -0.24
18522 H 28.826845272799076 115.06508813606847 19.263052913765634 H 0.0 **** 0.06
18523 H 29.401917285455553 114.16108703553988 17.84163915284058 H 0.0 **** 0.06
18524 H 29.457907117440982 113.4125874371728 19.456076657690115 H 0.0 **** 0.06
18525 H 30.565102669546974 114.7476608185971 19.05450346345522 H 0.0 **** 0.06
18526 C 91.84780139537986 84.7808143118774 8.15489479262618 C 0.0 **** -0.24
18527 H 92.25147805753 85.08762463115795 9.118986180803006 H 0.0 **** 0.06
18528 H 92.592166124747 84.19141864309293 7.620854976449891 H 0.0 **** 0.06
18529 H 91.59399040290009 85.66452163585402 7.569408622501101 H 0.0 **** 0.06
18530 H 90.95163083805727 84.17968446969849 8.311824732072694 H 0.0 **** 0.06
18531 C 47.654720790520585 16.53430121810979 76.9591546337216 C 0.0 **** -0.24
18532 H 48.09214908552835 16.843248836603237 76.00963181777169 H 0.0 **** 0.06
18533 H 46.70981406680305 17.05590580153506 77.11013022195846 H 0.0 **** 0.06
18534 H 48.33914886177942 16.77777124956907 77.77121510910146 H 0.0 **** 0.06
18535 H 47.477435938963396 15.45876302596983 76.94374670252043 H 0.0 **** 0.06
18536 C 39.06440029722664 92.06923214012053 108.08160826314642 C 0.0 **** -0.24
18537 H 39.62261319098785 91.58861206947904 107.27718268825176 H 0.0 **** 0.06
18538 H 39.478447660621676 91.76409358429234 109.04305768669354 H 0.0 **** 0.06
18539 H 38.01721490123571 91.76977107970927 108.0244715516211 H 0.0 **** 0.06
18540 H 39.1393642010339 93.15137735541302 107.97897393958009 H 0.0 **** 0.06
18541 C 73.39573350839669 49.78055356052647 36.53397300410006 C 0.0 **** -0.24
18542 H 73.81220454283022 49.82229983204198 37.540168217502014 H 0.0 **** 0.06
18543 H 73.00382856933345 50.76106544779364 36.2614941505916 H 0.0 **** 0.06
18544 H 72.58918342583615 49.04638014066046 36.50474658634755 H 0.0 **** 0.06
18545 H 74.17581862605977 49.49150124027929 35.830160076733875 H 0.0 **** 0.06
18546 C 104.88369805978917 12.060744860765034 8.866867410394093 C 0.0 **** -0.24
18547 H 105.74858177330492 11.704992537283882 9.427662565183965 H 0.0 **** 0.06
18548 H 104.29691341799474 11.2066477893896 8.526679579616598 H 0.0 **** 0.06
18549 H 105.22080848230979 12.63623031604525 8.005300983255893 H 0.0 **** 0.06
18550 H 104.26962057489493 12.692367903309783 9.508924955387783 H 0.0 **** 0.06
18551 C 119.67910507365204 93.09411401592342 45.490511611823635 C 0.0 **** -0.24
18552 H 118.69449803434478 92.70449618416094 45.74580074295251 H 0.0 **** 0.06
18553 H 119.57972319889205 94.10890480375224 45.104319113782964 H 0.0 **** 0.06
18554 H 120.1346776719605 92.46027353648611 44.72940676555757 H 0.0 **** 0.06
18555 H 120.30892893583473 93.10268732999421 46.37987210517363 H 0.0 **** 0.06
18556 C 61.79400517832045 24.909645429850343 14.032952753360377 C 0.0 **** -0.24
18557 H 61.9763794739261 24.43707492225206 13.067454708568505 H 0.0 **** 0.06
18558 H 61.58817716618353 25.969268840257534 13.884202219801551 H 0.0 **** 0.06
18559 H 62.673505094194695 24.79394866856633 14.665868886477341 H 0.0 **** 0.06
18560 H 60.936570722030524 24.435975755567114 14.51169269795588 H 0.0 **** 0.06
18561 C 6.209515632246166 113.34376600298447 113.98668601296643 C 0.0 **** -0.24
18562 H 5.812159888757094 112.44723669328542 113.50872322738451 H 0.0 **** 0.06
18563 H 7.199389031116482 113.13116811090535 114.39095512858403 H 0.0 **** 0.06
18564 H 5.544039178714456 113.65004832581536 114.7936066526568 H 0.0 **** 0.06
18565 H 6.281191834636559 114.14502135567943 113.2503239028704 H 0.0 **** 0.06
18566 C 41.71901977704442 31.683438473297258 91.8396063597871 C 0.0 **** -0.24
18567 H 41.49845177340177 31.145240285293085 90.91786552682856 H 0.0 **** 0.06
18568 H 42.641345611757856 32.25065657433578 91.71622336665288 H 0.0 **** 0.06
18569 H 41.836820091430894 30.971155302053944 92.65668500753273 H 0.0 **** 0.06
18570 H 40.899346438120006 32.36506522314991 92.06820717446837 H 0.0 **** 0.06
18571 C 24.90905873475549 29.469036066950693 104.13284025602147 C 0.0 **** -0.24
18572 H 25.494545912140467 28.68463493552416 103.65484103563759 H 0.0 **** 0.06
18573 H 23.858382867716386 29.175780368713568 104.15314159653715 H 0.0 **** 0.06
18574 H 25.016820754087874 30.397282807001943 103.5708241546258 H 0.0 **** 0.06
18575 H 25.26417972149366 29.61764811516028 105.15233680942586 H 0.0 **** 0.06
18576 C 55.01593569194151 16.945868854089554 25.08145509206048 C 0.0 **** -0.24
18577 H 55.25463660167728 16.60625055635876 26.0891167282561 H 0.0 **** 0.06
18578 H 55.71554940194255 17.728842292937756 24.786894367156265 H 0.0 **** 0.06
18579 H 53.99995677231718 17.338812296701608 25.0617844543533 H 0.0 **** 0.06
18580 H 55.09524866161563 16.10845757574392 24.387815025434122 H 0.0 **** 0.06
18581 C 81.73354533789345 75.06018645938241 83.57081332203865 C 0.0 **** -0.24
18582 H 82.31227125441224 75.97893307118296 83.47567824877899 H 0.0 **** 0.06
18583 H 82.37267841062263 74.26636199995791 83.95756434864961 H 0.0 **** 0.06
18584 H 81.34729088137674 74.77189848761188 82.59253201617389 H 0.0 **** 0.06
18585 H 80.90133888520256 75.22451685677909 84.25555317468007 H 0.0 **** 0.06
18586 C 68.60705484227765 31.69362954763608 65.85674019299032 C 0.0 **** -0.24
18587 H 69.42264651812252 30.991726079395065 66.02957660899034 H 0.0 **** 0.06
18588 H 68.09043420619184 31.43130229994793 64.9333804302455 H 0.0 **** 0.06
18589 H 69.00868804043591 32.70406330649756 65.773968485159 H 0.0 **** 0.06
18590 H 67.90668875967071 31.648820520117297 66.69002474408873 H 0.0 **** 0.06
18591 C 12.28084814480411 75.60323807304678 27.691795250009704 C 0.0 **** -0.24
18592 H 11.563783746474996 76.37223969970543 27.40291828353662 H 0.0 **** 0.06
18593 H 13.263721005395325 76.05431435269335 27.825244846636963 H 0.0 **** 0.06
18594 H 12.331256993171792 74.84349272221316 26.911495509650308 H 0.0 **** 0.06
18595 H 11.961634347533504 75.14281394591711 28.627637099289558 H 0.0 **** 0.06
18596 C 80.54086563532852 29.52276205162906 54.50062230437314 C 0.0 **** -0.24
18597 H 79.52317851723353 29.191724692306465 54.70665357152782 H 0.0 **** 0.06
18598 H 80.58500276523577 29.962560753493655 53.504707310397976 H 0.0 **** 0.06
18599 H 81.2174023042696 28.669854556815174 54.552896928351316 H 0.0 **** 0.06
18600 H 80.83676835103893 30.265896813019744 55.24082835366934 H 0.0 **** 0.06
18601 C 13.441667542635656 37.235284219369845 54.68895517897096 C 0.0 **** -0.24
18602 H 13.629330444276405 38.302112755093646 54.809649865415224 H 0.0 **** 0.06
18603 H 13.939413194701899 36.87946850727917 53.78678437429721 H 0.0 **** 0.06
18604 H 12.369464475049824 37.06251391728398 54.60517197595766 H 0.0 **** 0.06
18605 H 13.830788912779525 36.69888247487083 55.554659205053326 H 0.0 **** 0.06
18606 C 49.959012157310156 0.8101489921625671 113.59312136752658 C 0.0 **** -0.24
18607 H 50.153888694573254 -0.14839909237194604 114.07343207849172 H 0.0 **** 0.06
18608 H 48.98578015558505 0.7777234085590408 113.10031621379332 H 0.0 **** 0.06
18609 H 50.734189020884 1.0101715646270009 112.85393163191026 H 0.0 **** 0.06
18610 H 49.95978793504551 1.5995742279932301 114.34385756107469 H 0.0 **** 0.06
18611 C 78.39276262548015 32.094486889561665 37.100589865766324 C 0.0 **** -0.24
18612 H 78.10375557475896 31.410186530662656 36.302386449093916 H 0.0 **** 0.06
18613 H 78.86945835677045 31.532464772873283 37.90421793355287 H 0.0 **** 0.06
18614 H 77.50719687951937 32.599551189360454 37.484596374405925 H 0.0 **** 0.06
18615 H 79.09192950077016 32.83407726342452 36.70902438884423 H 0.0 **** 0.06
18616 C 6.095170627765423 122.34348243358087 12.249206571889403 C 0.0 **** -0.24
18617 H 7.072999176446292 122.82289018009418 12.20137083263495 H 0.0 **** 0.06
18618 H 6.042204265256057 121.55374062614824 11.49928178162699 H 0.0 **** 0.06
18619 H 5.31813200479035 123.08237394373923 12.056066815763131 H 0.0 **** 0.06
18620 H 5.9500650919767075 121.91394690105655 13.24091689624342 H 0.0 **** 0.06
18621 C 4.675930048978586 122.80229266868204 16.14228602953071 C 0.0 **** -0.24
18622 H 4.141646624604732 122.25370260450464 15.365891845032309 H 0.0 **** 0.06
18623 H 4.0991089673103716 123.68210483163358 16.427664220211824 H 0.0 **** 0.06
18624 H 5.649662194409274 123.11204687715355 15.763933415176467 H 0.0 **** 0.06
18625 H 4.811576349742694 122.15917168549697 17.012846931764813 H 0.0 **** 0.06
18626 C 107.73951418927906 31.33750326520513 38.63675258601165 C 0.0 **** -0.24
18627 H 107.78636350261036 31.156308868769457 39.71064990383053 H 0.0 **** 0.06
18628 H 107.35264570660009 30.45076990245002 38.1360037936731 H 0.0 **** 0.06
18629 H 108.739292555473 31.560222541466885 38.26242103119088 H 0.0 **** 0.06
18630 H 107.08142740469471 32.18340834049994 38.44032690766346 H 0.0 **** 0.06
18631 C 35.8874631893404 4.606008054368544 43.21143577188124 C 0.0 **** -0.24
18632 H 35.561823974690775 3.567533046472647 43.28023639710648 H 0.0 **** 0.06
18633 H 35.59302192764823 5.1391685415514985 44.11612246665507 H 0.0 **** 0.06
18634 H 35.42409705008971 5.0753520716427545 42.34478093101029 H 0.0 **** 0.06
18635 H 36.97173654311093 4.639149955891867 43.10668084234268 H 0.0 **** 0.06
18636 C 75.90735006263168 66.2899732308081 42.7624659603276 C 0.0 **** -0.24
18637 H 75.07068801130185 65.60663091229722 42.90696710435829 H 0.0 **** 0.06
18638 H 76.84427270434173 65.73666902369206 42.82951179785314 H 0.0 **** 0.06
18639 H 75.88332738852841 67.06075449102097 43.533514548794585 H 0.0 **** 0.06
18640 H 75.82938874608777 66.75708055742835 41.78056856191499 H 0.0 **** 0.06
18641 C 95.50333465962488 27.65964763755497 20.686485681227936 C 0.0 **** -0.24
18642 H 94.71779184503572 26.957180158694094 20.40893279202865 H 0.0 **** 0.06
18643 H 95.40519518122395 28.56769615944131 20.090326884057475 H 0.0 **** 0.06
18644 H 96.4778469670073 27.207705402907358 20.502185179003078 H 0.0 **** 0.06
18645 H 95.41138763809897 27.908080890207444 21.74382024168466 H 0.0 **** 0.06
18646 C 80.37570845305234 114.84921946170395 97.86350807619974 C 0.0 **** -0.24
18647 H 80.5999388517877 113.81258279262323 97.61015475723312 H 0.0 **** 0.06
18648 H 80.2135169109763 115.41915044301976 96.94836146768688 H 0.0 **** 0.06
18649 H 81.21248991802318 115.27738974333806 98.41520426624325 H 0.0 **** 0.06
18650 H 79.4776778908967 114.88610803622291 98.47902166103526 H 0.0 **** 0.06
18651 C 51.0015803068047 12.82397680815792 66.79367299541434 C 0.0 **** -0.24
18652 H 50.495589274850204 11.894511219102416 66.53280043024881 H 0.0 **** 0.06
18653 H 51.98035404322886 12.598047023334747 67.21820388336073 H 0.0 **** 0.06
18654 H 50.405231997951574 13.369808324256784 67.52416961322189 H 0.0 **** 0.06
18655 H 51.12568048437225 13.433474646116835 65.89821039273573 H 0.0 **** 0.06
18656 C 50.37673290808458 36.389710251269406 8.114544311300904 C 0.0 **** -0.24
18657 H 50.2702799605475 35.68000293318062 8.934691844299437 H 0.0 **** 0.06
18658 H 49.516678327494276 36.30881577305314 7.449824890655748 H 0.0 **** 0.06
18659 H 51.28811297669824 36.16880705326835 7.559089681206217 H 0.0 **** 0.06
18660 H 50.432347091942326 37.402266256974485 8.51648361302722 H 0.0 **** 0.06
18661 C 14.03300813008957 60.37206934563248 14.100928965261712 C 0.0 **** -0.24
18662 H 15.022764324513105 60.74903809561542 13.840861644143253 H 0.0 **** 0.06
18663 H 14.134521022877436 59.52963124071681 14.78660672443198 H 0.0 **** 0.06
18664 H 13.519541075615905 60.04590324050527 13.19740759266643 H 0.0 **** 0.06
18665 H 13.457977204875533 61.16446359657988 14.580161162730736 H 0.0 **** 0.06
18666 C 114.85321229509688 32.660044515402404 36.8011346385818 C 0.0 **** -0.24
18667 H 114.44666894782401 33.30791443764528 36.023831070278675 H 0.0 **** 0.06
18668 H 114.08492335896878 32.46577379093165 37.54980327379755 H 0.0 **** 0.06
18669 H 115.7045716263678 33.15111296065163 37.272664901544175 H 0.0 **** 0.06
18670 H 115.17583935400182 31.71871055257705 36.35676560869169 H 0.0 **** 0.06
18671 C 46.43949326629654 111.007960788111 42.21639138097251 C 0.0 **** -0.24
18672 H 46.96537672943904 110.3575184056998 41.517256190625574 H 0.0 **** 0.06
18673 H 45.38717196879861 111.06513936413279 41.93680375114775 H 0.0 **** 0.06
18674 H 46.87943997120863 112.00498343688105 42.18471380219634 H 0.0 **** 0.06
18675 H 46.52692389372458 110.60413881743494 43.224530435166315 H 0.0 **** 0.06
18676 C 72.32546079748732 53.91962214035391 14.7933760687688 C 0.0 **** -0.24
18677 H 72.28282246399385 55.0076566117267 14.74370043280744 H 0.0 **** 0.06
18678 H 72.53669697209921 53.51841910890124 13.802342218021305 H 0.0 **** 0.06
18679 H 71.36763747807385 53.535368844424795 15.144963372168828 H 0.0 **** 0.06
18680 H 73.11316244031269 53.61887107061284 15.484325875605489 H 0.0 **** 0.06
18681 C 99.3341127829805 101.98185393879723 92.67105904629715 C 0.0 **** -0.24
18682 H 98.46707264517829 101.32981389461051 92.56172045097907 H 0.0 **** 0.06
18683 H 99.4019489586812 102.64372494659835 91.80759582360633 H 0.0 **** 0.06
18684 H 100.23711779866423 101.37558144909613 92.73745391725004 H 0.0 **** 0.06
18685 H 99.22799668852062 102.57688559376763 93.57827424959873 H 0.0 **** 0.06
18686 C 75.68947893540229 63.13555374339634 103.31956964272013 C 0.0 **** -0.24
18687 H 74.84459451899744 62.57047157377636 103.71282039606098 H 0.0 **** 0.06
18688 H 75.6963033641768 63.067023176145625 102.23107399548269 H 0.0 **** 0.06
18689 H 76.61797473582607 62.7244666943574 103.71527239858204 H 0.0 **** 0.06
18690 H 75.59782867629326 64.18037540274148 103.61698796608408 H 0.0 **** 0.06
18691 C 80.42095356318521 113.57308066247336 33.95094610513636 C 0.0 **** -0.24
18692 H 79.45505599247247 113.54685471555143 34.45519582456489 H 0.0 **** 0.06
18693 H 80.27038457483371 113.49422156765756 32.87415506493641 H 0.0 **** 0.06
18694 H 81.032281870757 112.73890356911252 34.294474788988424 H 0.0 **** 0.06
18695 H 80.92512552309802 114.51198431731433 34.18092718396713 H 0.0 **** 0.06
18696 C 32.114206136745764 36.67405001160185 4.96024638343718 C 0.0 **** -0.24
18697 H 32.516491080679714 35.86950329669881 4.344610844930571 H 0.0 **** 0.06
18698 H 32.79377369172309 37.52654473234412 4.93158517376628 H 0.0 **** 0.06
18699 H 32.00868753399024 36.32771896776211 5.987971685505755 H 0.0 **** 0.06
18700 H 31.139014291966106 36.97266914529419 4.574909886780517 H 0.0 **** 0.06
18701 C 71.21340880211226 81.58321528904975 39.23145504001598 C 0.0 **** -0.24
18702 H 72.19808453714393 81.34964770745076 38.82654444715738 H 0.0 **** 0.06
18703 H 71.26801675205613 82.50820760204955 39.80674277438378 H 0.0 **** 0.06
18704 H 70.8851046473328 80.77103470213116 39.8795960365288 H 0.0 **** 0.06
18705 H 70.50383181755042 81.70594650475488 38.413299034037934 H 0.0 **** 0.06
18706 C 109.29041803943662 84.57389058830022 90.74558550097993 C 0.0 **** -0.24
18707 H 108.6918924421523 85.3112293266288 91.28026146276954 H 0.0 **** 0.06
18708 H 110.27447731686746 84.5000123954878 91.20842786678293 H 0.0 **** 0.06
18709 H 109.39925863568459 84.88115398185275 89.70547798851226 H 0.0 **** 0.06
18710 H 108.79428560328634 83.60400949413359 90.78862044502733 H 0.0 **** 0.06
18711 C 66.23324655454896 71.21857376480372 26.9211733815699 C 0.0 **** -0.24
18712 H 65.43472059270108 71.16415766900204 26.18001754024749 H 0.0 **** 0.06
18713 H 66.00678453772649 72.00550519959751 27.64144738869257 H 0.0 **** 0.06
18714 H 67.17615022793032 71.44104910959476 26.422998695612478 H 0.0 **** 0.06
18715 H 66.31199187870939 70.26301858594675 27.43949970050869 H 0.0 **** 0.06
18716 C 41.44886744707702 3.3287837408295786 50.2739752839423 C 0.0 **** -0.24
18717 H 41.926200878328586 2.381544954173833 50.019957045143585 H 0.0 **** 0.06
18718 H 42.17216641643472 4.138742259396963 50.170773541617336 H 0.0 **** 0.06
18719 H 41.089117109207905 3.2899205057119048 51.30180358220223 H 0.0 **** 0.06
18720 H 40.60900005537968 3.5026093062973302 49.600610454870505 H 0.0 **** 0.06
18721 C 60.418715701993904 39.856754851039256 101.33690630665956 C 0.0 **** -0.24
18722 H 60.53008480160645 38.774007102013485 101.28561397018882 H 0.0 **** 0.06
18723 H 59.394724706179204 40.128803263074786 101.0780262404952 H 0.0 **** 0.06
18724 H 61.10818286990576 40.326162699320264 100.63540292959408 H 0.0 **** 0.06
18725 H 60.64007381033866 40.196797171570694 102.34812164770796 H 0.0 **** 0.06
18726 C 8.937398473872946 60.18841986369995 66.47958790650475 C 0.0 **** -0.24
18727 H 9.25600951846721 61.22769942368022 66.56082036000723 H 0.0 **** 0.06
18728 H 9.584212233305124 59.56124500310662 67.09365011729042 H 0.0 **** 0.06
18729 H 9.001942032355686 59.86869456966713 65.44026721936442 H 0.0 **** 0.06
18730 H 7.907575958828232 60.09623093298514 66.82583715135388 H 0.0 **** 0.06
18731 C 24.696302571859455 84.04079073767035 122.68223861358987 C 0.0 **** -0.24
18732 H 24.997221046865327 83.42570038896174 123.53055793113289 H 0.0 **** 0.06
18733 H 23.64826911098369 83.85189063172879 122.4508703046614 H 0.0 **** 0.06
18734 H 25.310661901656587 83.79171709916913 121.81700416921363 H 0.0 **** 0.06
18735 H 24.829414288595522 85.09371278352559 122.93144568185075 H 0.0 **** 0.06
18736 C 3.6367563686685145 19.08019461153441 80.70988095302943 C 0.0 **** -0.24
18737 H 4.25398248389871 19.081594635379986 79.8116590138658 H 0.0 **** 0.06
18738 H 3.9278760873763474 18.247432849329414 81.34931649411993 H 0.0 **** 0.06
18739 H 2.5888213679167222 18.975647111293284 80.43070053740158 H 0.0 **** 0.06
18740 H 3.7776223572486174 20.018124814385487 81.2473132095143 H 0.0 **** 0.06
18741 C 14.185793448708921 57.26234593456968 106.91840850074907 C 0.0 **** -0.24
18742 H 13.376551579985573 56.944194780883436 106.26079374090669 H 0.0 **** 0.06
18743 H 13.849518731603666 58.1007119062549 107.52879734502886 H 0.0 **** 0.06
18744 H 15.041777310225996 57.569274589512304 106.3178403451753 H 0.0 **** 0.06
18745 H 14.474298215425392 56.43429845238222 107.56584735686039 H 0.0 **** 0.06
18746 C 105.8262170671983 97.16076153416628 119.96416973879813 C 0.0 **** -0.24
18747 H 106.56401264578528 96.44020553691935 119.61196891743923 H 0.0 **** 0.06
18748 H 105.15081650718147 96.67430514246517 120.66774201966632 H 0.0 **** 0.06
18749 H 105.25651973785781 97.5410307839477 119.11566162890789 H 0.0 **** 0.06
18750 H 106.33353083417683 97.98835117798399 120.46077408075844 H 0.0 **** 0.06
18751 C 113.49427800427064 33.67482487563681 108.01657324000212 C 0.0 **** -0.24
18752 H 114.31477877080263 33.87605195045756 108.70450623280692 H 0.0 **** 0.06
18753 H 113.89514810604615 33.31823156789848 107.06771598735045 H 0.0 **** 0.06
18754 H 112.92663378398416 34.59013635568406 107.85142906951444 H 0.0 **** 0.06
18755 H 112.84103183673213 32.913519409069664 108.44360036865137 H 0.0 **** 0.06
18756 C 17.10397992918847 63.52345496454194 27.702942062307876 C 0.0 **** -0.24
18757 H 18.183850725142946 63.63354113768179 27.805946167395668 H 0.0 **** 0.06
18758 H 16.864584854338034 62.48232784559252 27.483244307309562 H 0.0 **** 0.06
18759 H 16.751049665490882 64.15725160868647 26.888514761984965 H 0.0 **** 0.06
18760 H 16.617989564973158 63.819687500981246 28.63170536564092 H 0.0 **** 0.06
18761 C 113.66031385613232 49.59938889296092 118.36933575997179 C 0.0 **** -0.24
18762 H 114.25128647106413 50.223137457842626 119.03908477074995 H 0.0 **** 0.06
18763 H 114.2923036333928 48.814945080607544 117.95133862136134 H 0.0 **** 0.06
18764 H 113.2585272207811 50.211476730515585 117.56165964721521 H 0.0 **** 0.06
18765 H 112.83883146888965 49.146619923406774 118.92515199780354 H 0.0 **** 0.06
18766 C 115.62777963300393 13.843105820298007 51.64426881539281 C 0.0 **** -0.24
18767 H 115.54231542144436 14.489511443580966 50.77011012848867 H 0.0 **** 0.06
18768 H 116.19329067939165 12.948866837391762 51.379839857252335 H 0.0 **** 0.06
18769 H 114.63240237611915 13.557931694567117 51.983574716759165 H 0.0 **** 0.06
18770 H 116.14485682656361 14.37807115791503 52.44107744343668 H 0.0 **** 0.06
18771 C 90.06483967803464 94.54453133873852 72.86112391345031 C 0.0 **** -0.24
18772 H 91.08771022965828 94.85655508512849 73.06863209941861 H 0.0 **** 0.06
18773 H 89.54912699962293 94.34202768269614 73.80090873997136 H 0.0 **** 0.06
18774 H 90.07720478176873 93.64092626411241 72.25137503157089 H 0.0 **** 0.06
18775 H 89.54470127735985 95.33762107946472 72.32485685166256 H 0.0 **** 0.06
18776 C 7.606758445859185 68.45709257798208 25.463500869783978 C 0.0 **** -0.24
18777 H 8.525443190312075 68.81103469498439 24.997300328594513 H 0.0 **** 0.06
18778 H 7.476241288752405 68.94878473692273 26.428089310462475 H 0.0 **** 0.06
18779 H 7.665861330255808 67.3788245522313 25.61049271477549 H 0.0 **** 0.06
18780 H 6.758572450645403 68.68991025810223 24.819579942387854 H 0.0 **** 0.06
18781 C 50.70207261405848 104.82175183055139 64.7652405425474 C 0.0 **** -0.24
18782 H 50.55435197197582 103.99341136823719 64.07270291228993 H 0.0 **** 0.06
18783 H 51.519826385035614 105.45004014298163 64.4098121187624 H 0.0 **** 0.06
18784 H 50.947800628528476 104.42964807145907 65.75265187833159 H 0.0 **** 0.06
18785 H 49.789061153435384 105.41332190095525 64.82610585214051 H 0.0 **** 0.06
18786 C 30.584373033647125 122.54764062530847 80.22912618675542 C 0.0 **** -0.24
18787 H 31.202514997746277 122.50301778796154 81.12660716147155 H 0.0 **** 0.06
18788 H 29.599071824984378 122.93734405798409 80.48578840546918 H 0.0 **** 0.06
18789 H 30.481894911123334 121.54689729363668 79.80876829510191 H 0.0 **** 0.06
18790 H 31.056022972091114 123.20224431000997 79.49625098821446 H 0.0 **** 0.06
18791 C 4.882788113214389 114.52709810394268 108.28080324757687 C 0.0 **** -0.24
18792 H 4.815411051334024 115.61376392726632 108.22655899500188 H 0.0 **** 0.06
18793 H 4.153822102479609 114.08408815443968 107.60244609118168 H 0.0 **** 0.06
18794 H 4.6770858583002735 114.20050931493205 109.30035808757394 H 0.0 **** 0.06
18795 H 5.885901088168282 114.2117778755156 107.99295043349919 H 0.0 **** 0.06
18796 C 91.10168205417368 113.59835252331865 20.68733705586868 C 0.0 **** -0.24
18797 H 91.58134323594068 112.66857678861055 20.992351667865933 H 0.0 **** 0.06
18798 H 91.80544474690684 114.19639985748589 20.107558461744816 H 0.0 **** 0.06
18799 H 90.79256813821723 114.15535661217092 21.571876905227043 H 0.0 **** 0.06
18800 H 90.2273809216849 113.37202801554079 20.076612501609986 H 0.0 **** 0.06
18801 C 104.10439317379905 39.9079300141978 8.036844456124115 C 0.0 **** -0.24
18802 H 105.14009809588785 39.57772881735718 7.960025414916078 H 0.0 **** 0.06
18803 H 103.46769919086253 39.05624403763392 8.278814579439487 H 0.0 **** 0.06
18804 H 103.78926632592268 40.33928409266116 7.086535319626659 H 0.0 **** 0.06
18805 H 104.02015997367616 40.65934427320599 8.82232145647123 H 0.0 **** 0.06
18806 C 17.778501948058846 117.99647573014622 91.33367154071829 C 0.0 **** -0.24
18807 H 16.77926506691165 117.7127945811761 91.00236443104762 H 0.0 **** 0.06
18808 H 17.719528032997346 118.91712487773972 91.91557962328676 H 0.0 **** 0.06
18809 H 18.41783851315941 118.15595480490725 90.46495298517164 H 0.0 **** 0.06
18810 H 18.19655559915344 117.20225830535662 91.95119277001021 H 0.0 **** 0.06
18811 C 37.53788534359552 65.67881256086093 78.30593404268815 C 0.0 **** -0.24
18812 H 36.60930445514646 65.10964678346238 78.28002085766717 H 0.0 **** 0.06
18813 H 38.13430940685254 65.36321940577764 79.16248996782986 H 0.0 **** 0.06
18814 H 37.31041602737474 66.74151442753237 78.3915796873782 H 0.0 **** 0.06
18815 H 38.09794119405609 65.50102658127801 77.3868543957298 H 0.0 **** 0.06
18816 C 5.0273638602728 31.5150011076029 6.1626424380341405 C 0.0 **** -0.24
18817 H 5.082190283653006 32.211613401459175 6.998505477156016 H 0.0 **** 0.06
18818 H 5.97835596380537 30.9908342581561 6.063441193282131 H 0.0 **** 0.06
18819 H 4.817985522995826 32.06438203239102 5.245363874862278 H 0.0 **** 0.06
18820 H 4.230923670637054 30.7931747384051 6.343259206836009 H 0.0 **** 0.06
18821 C 41.89154604535594 77.94001269159958 37.05970449119161 C 0.0 **** -0.24
18822 H 41.776755841949026 76.94625274048622 37.49489431681559 H 0.0 **** 0.06
18823 H 41.06860248884549 78.57586885843665 37.38710726949279 H 0.0 **** 0.06
18824 H 41.88274101283704 77.86298909014192 35.972519347431216 H 0.0 **** 0.06
18825 H 42.83787587819714 78.37180333638719 37.38696500848704 H 0.0 **** 0.06
18826 C 12.062508060417258 122.15082962562565 65.65925060399994 C 0.0 **** -0.24
18827 H 11.25589298161674 121.48075386444702 65.36267132547638 H 0.0 **** 0.06
18828 H 12.799361152405254 121.59665629609674 66.2414912761727 H 0.0 **** 0.06
18829 H 11.65675797135333 122.96233040354872 66.26410191504971 H 0.0 **** 0.06
18830 H 12.537862788527434 122.563337434333 64.76969573701837 H 0.0 **** 0.06
18831 C 40.32292269201224 119.28030563938377 0.4280780607821839 C 0.0 **** -0.24
18832 H 40.73215870341585 119.92009128531151 -0.3541347945345592 H 0.0 **** 0.06
18833 H 39.27031982455594 119.08408746804359 0.2234555969239551 H 0.0 **** 0.06
18834 H 40.41971066668759 119.77796038761264 1.3927819138000785 H 0.0 **** 0.06
18835 H 40.87112640078152 118.33721324170305 0.4488446786276512 H 0.0 **** 0.06
18836 C 68.58481701063644 42.64066490220506 98.48179453213646 C 0.0 **** -0.24
18837 H 69.02515622279239 41.78293696845202 98.99000892086575 H 0.0 **** 0.06
18838 H 69.09123796313489 43.55094284815078 98.80338061332226 H 0.0 **** 0.06
18839 H 67.52528423818413 42.70578555361118 98.73223891870977 H 0.0 **** 0.06
18840 H 68.69757470578239 42.52257071123876 97.40451967308826 H 0.0 **** 0.06
18841 C 19.699431976125812 32.22110287991981 70.44805371615577 C 0.0 **** -0.24
18842 H 19.691227956422345 32.27586950124558 69.35889987773311 H 0.0 **** 0.06
18843 H 19.96609100318154 31.210718196270676 70.7588245096423 H 0.0 **** 0.06
18844 H 18.70932873678722 32.47049098631581 70.83028909093407 H 0.0 **** 0.06
18845 H 20.429213554376986 32.928358495848755 70.84112496369501 H 0.0 **** 0.06
18846 C 113.92260015391881 100.01075793283653 72.80653025035272 C 0.0 **** -0.24
18847 H 114.81205059961005 100.51061793173565 72.42350731234492 H 0.0 **** 0.06
18848 H 113.47757805231163 100.61631347339664 73.59660592364034 H 0.0 **** 0.06
18849 H 114.19979478662654 99.03613816615837 73.20843466791194 H 0.0 **** 0.06
18850 H 113.20342277565629 99.87980981034389 71.9993040856748 H 0.0 **** 0.06
18851 C 96.9933393737075 37.79924923955315 116.46588845744503 C 0.0 **** -0.24
18852 H 96.66353144267947 38.76721879926521 116.09028853989912 H 0.0 **** 0.06
18853 H 96.72241572165308 37.70615559356207 117.51802709200737 H 0.0 **** 0.06
18854 H 98.07506305210654 37.71895370384192 116.36060221044833 H 0.0 **** 0.06
18855 H 96.51312146149553 37.00512495185029 115.89419703893671 H 0.0 **** 0.06
18856 C 96.64026144946041 89.7294889956421 22.33567886148677 C 0.0 **** -0.24
18857 H 97.32217328598995 90.02825348997928 23.132964775774212 H 0.0 **** 0.06
18858 H 96.64132798486395 90.4902667251371 21.553821507381087 H 0.0 **** 0.06
18859 H 95.63346169196632 89.62362906638097 22.739538518830955 H 0.0 **** 0.06
18860 H 96.9666418912849 88.77758585262893 21.91790275978275 H 0.0 **** 0.06
18861 C 42.58005838253854 23.136565286918113 57.21468712569468 C 0.0 **** -0.24
18862 H 41.89016074850082 22.29373006081653 57.27621639691024 H 0.0 **** 0.06
18863 H 42.34179398601253 23.856835618042965 57.99727413626509 H 0.0 **** 0.06
18864 H 42.48342760009456 23.613535905963545 56.238941630580655 H 0.0 **** 0.06
18865 H 43.60152220631619 22.779997577520945 57.34520073974478 H 0.0 **** 0.06
18866 C 71.31552125442767 88.71678329989021 18.403901127185435 C 0.0 **** -0.24
18867 H 71.04130434862981 88.6545027191044 17.351092079182393 H 0.0 **** 0.06
18868 H 70.42840349430293 88.93784448927173 18.99853614871884 H 0.0 **** 0.06
18869 H 72.05199016076273 89.50839238574439 18.541717338465475 H 0.0 **** 0.06
18870 H 71.74038747691583 87.76522693169922 18.725058304254702 H 0.0 **** 0.06
18871 C 45.757613894899364 59.97160631149629 18.521628508953256 C 0.0 **** -0.24
18872 H 46.013804171867704 59.7090085463491 19.548131637721326 H 0.0 **** 0.06
18873 H 44.725239957017116 59.68358644818457 18.320247322371642 H 0.0 **** 0.06
18874 H 46.42227411287307 59.44593412041837 17.83606505514541 H 0.0 **** 0.06
18875 H 45.869048641302015 61.04681280369813 18.383418610831257 H 0.0 **** 0.06
18876 C 116.07790746558851 96.9666074205704 61.21238200968784 C 0.0 **** -0.24
18877 H 115.64914086285461 95.97359370588319 61.35091259762855 H 0.0 **** 0.06
18878 H 116.18649228481934 97.16835876400313 60.14677071320466 H 0.0 **** 0.06
18879 H 117.05576629396438 97.00980515020112 61.69269421126468 H 0.0 **** 0.06
18880 H 115.4198611458686 97.7111141476461 61.65960392294333 H 0.0 **** 0.06
18881 C 40.175956798813814 13.926987419288622 32.112334747009285 C 0.0 **** -0.24
18882 H 40.04258612792262 14.558957964833525 31.233981041642892 H 0.0 **** 0.06
18883 H 39.84013905476988 12.91515773918195 31.88593723459357 H 0.0 **** 0.06
18884 H 39.59244628102755 14.327555108771833 32.94068832824931 H 0.0 **** 0.06
18885 H 41.23050553324015 13.906925020571265 32.38765489390828 H 0.0 **** 0.06
18886 C 65.27915235863014 28.242425978579547 49.89814103709811 C 0.0 **** -0.24
18887 H 65.29235089448187 29.279046153679815 50.23465420567018 H 0.0 **** 0.06
18888 H 65.74873560565459 28.174238264753853 48.91608666153524 H 0.0 **** 0.06
18889 H 64.24799113773614 27.89511045521914 49.83216998278456 H 0.0 **** 0.06
18890 H 65.82724412783354 27.62280647991031 50.607069617893394 H 0.0 **** 0.06
18891 C 85.76262284288131 3.1958038381898604 70.11162728758754 C 0.0 **** -0.24
18892 H 86.42386447618696 3.7363254718136716 70.78888393898887 H 0.0 **** 0.06
18893 H 85.28810593924726 2.3738823238615936 70.6484703591149 H 0.0 **** 0.06
18894 H 86.34139384917219 2.7994695272724783 69.27816710928931 H 0.0 **** 0.06
18895 H 84.99675779311087 3.872810938026632 69.7340431449085 H 0.0 **** 0.06
18896 C 63.753097937443556 89.39146546446011 71.47571333622409 C 0.0 **** -0.24
18897 H 63.8368190845697 89.63674437316223 70.41650713041565 H 0.0 **** 0.06
18898 H 63.836871625805315 88.31235910344884 71.60573315566666 H 0.0 **** 0.06
18899 H 62.787652179156254 89.72864776256603 71.85131981376105 H 0.0 **** 0.06
18900 H 64.55162682020739 89.88700267624938 72.02809383404872 H 0.0 **** 0.06
18901 C 62.35438904701269 86.87942589305456 39.68139989341528 C 0.0 **** -0.24
18902 H 62.25352264471755 86.71004772350977 38.60939723065363 H 0.0 **** 0.06
18903 H 62.75194619817941 85.98143150649214 40.15465681859389 H 0.0 **** 0.06
18904 H 61.377555930318096 87.11363696457778 40.10527720680484 H 0.0 **** 0.06
18905 H 63.03527853570384 87.71355015576103 39.85503745223584 H 0.0 **** 0.06
18906 C 39.137200365615115 70.58423958441927 113.69310946416346 C 0.0 **** -0.24
18907 H 38.91845554904674 70.5096746278341 114.7590684521228 H 0.0 **** 0.06
18908 H 40.10384622840317 71.0686376754 113.55433272504311 H 0.0 **** 0.06
18909 H 38.3617313037725 71.17261813462588 113.20352997516484 H 0.0 **** 0.06
18910 H 39.165692528309165 69.58462730800736 113.25869809773056 H 0.0 **** 0.06
18911 C 87.34691059955291 114.6593979338759 112.02187681935688 C 0.0 **** -0.24
18912 H 87.43063028879705 113.58948979275708 111.8253840478055 H 0.0 **** 0.06
18913 H 86.6541794960849 115.10640248763526 111.30891521521683 H 0.0 **** 0.06
18914 H 88.3267916774381 115.12493620012144 111.91828204481685 H 0.0 **** 0.06
18915 H 86.97567636967425 114.81395994370405 113.03502066012638 H 0.0 **** 0.06
18916 C 38.51993391478117 53.393620530573685 90.05853840603709 C 0.0 **** -0.24
18917 H 37.689190193589695 53.39096575458947 90.76481142344272 H 0.0 **** 0.06
18918 H 38.95623764079682 54.39163020646633 90.01531271214014 H 0.0 **** 0.06
18919 H 38.15739730203143 53.11223749017044 89.06984811232834 H 0.0 **** 0.06
18920 H 39.276048600023856 52.679755173645006 90.38529755442045 H 0.0 **** 0.06
18921 C 13.301547716339371 101.49302183556927 2.0021026925900287 C 0.0 **** -0.24
18922 H 12.849142495691751 101.63213932924836 1.0201248123933198 H 0.0 **** 0.06
18923 H 14.283159873361512 101.96604460298448 2.0193571236398498 H 0.0 **** 0.06
18924 H 13.406405400629353 100.42761678434817 2.2045986074386406 H 0.0 **** 0.06
18925 H 12.66537174833337 101.94674188785228 2.7622480570141335 H 0.0 **** 0.06
18926 C 80.85777874006325 22.541890727315263 116.08081122426188 C 0.0 **** -0.24
18927 H 81.83552898085031 22.22681132154605 115.71694432749689 H 0.0 **** 0.06
18928 H 80.17100743276106 21.695884536581275 116.05556445652195 H 0.0 **** 0.06
18929 H 80.47409790235494 23.34112062787966 115.44654448457868 H 0.0 **** 0.06
18930 H 80.95077866678801 22.90399831776773 117.10511238105886 H 0.0 **** 0.06
18931 C 89.4025997518623 59.61347410857444 30.804228310322628 C 0.0 **** -0.24
18932 H 89.36809209433247 58.63353353570284 31.281519066005615 H 0.0 **** 0.06
18933 H 89.22792706972355 60.38713878034501 31.551782406178745 H 0.0 **** 0.06
18934 H 88.63176725209156 59.66952484341398 30.035457023210313 H 0.0 **** 0.06
18935 H 90.38117014663011 59.761787893553006 30.348670785334207 H 0.0 **** 0.06
18936 C 1.8792966655181829 56.49528528962401 9.52226509048279 C 0.0 **** -0.24
18937 H 2.745665578490957 56.240626611962284 8.910894800475845 H 0.0 **** 0.06
18938 H 1.4413749525984514 55.58265485030756 9.927316933662652 H 0.0 **** 0.06
18939 H 1.1417678053140463 57.011892167544715 8.907699191939216 H 0.0 **** 0.06
18940 H 2.189603766191752 57.14441511673067 10.340134637391202 H 0.0 **** 0.06
18941 C 99.87329374728003 7.767938261368897 17.919007081173845 C 0.0 **** -0.24
18942 H 99.36480038995094 7.633491826167898 16.96395399136435 H 0.0 **** 0.06
18943 H 100.41562606567489 8.713443564730255 17.911385530258087 H 0.0 **** 0.06
18944 H 100.57486845931953 6.9483976744929805 18.074733948084884 H 0.0 **** 0.06
18945 H 99.13847658977565 7.7756112882770765 18.72279403601823 H 0.0 **** 0.06
18946 C 117.31587484093482 94.08610161203268 5.606818426768868 C 0.0 **** -0.24
18947 H 116.8091169744029 94.46407147227211 4.719285938509792 H 0.0 **** 0.06
18948 H 116.77493182751637 93.22187713087055 5.993897844311224 H 0.0 **** 0.06
18949 H 117.34726831760116 94.86624780006292 6.367265052604072 H 0.0 **** 0.06
18950 H 118.3331381391406 93.79236890333345 5.346577722852359 H 0.0 **** 0.06
18951 C 46.335909320890465 74.14733369744124 37.3620932826708 C 0.0 **** -0.24
18952 H 46.68540053062446 75.03885175633565 37.88201934232018 H 0.0 **** 0.06
18953 H 46.31741689318241 74.33638754297266 36.28919611526081 H 0.0 **** 0.06
18954 H 45.33145087787423 73.89839962722567 37.704694773567695 H 0.0 **** 0.06
18955 H 47.008750741190454 73.3158043974671 37.574077259977486 H 0.0 **** 0.06
18956 C 0.22464490980230778 39.07500063346215 25.07601029057824 C 0.0 **** -0.24
18957 H 0.7726570525451706 39.52139958997484 24.24574321630712 H 0.0 **** 0.06
18958 H -0.15757787276898227 38.0992265934458 24.77567798816105 H 0.0 **** 0.06
18959 H -0.6076307148337747 39.72242653754697 25.350807762243676 H 0.0 **** 0.06
18960 H 0.8913008465927987 38.95806591827508 25.929638295466987 H 0.0 **** 0.06
18961 C 101.01237571482336 32.37244307846767 60.22106357408819 C 0.0 **** -0.24
18962 H 100.83087295137314 31.411628302608847 60.70426280853428 H 0.0 **** 0.06
18963 H 101.37979688367344 33.08625014976289 60.95916514000851 H 0.0 **** 0.06
18964 H 100.08375496265981 32.74119645157509 59.78704850578498 H 0.0 **** 0.06
18965 H 101.75722222001905 32.24766701857831 59.43424695144182 H 0.0 **** 0.06
18966 C 56.10462955530406 1.6096691845698672 97.92554030066148 C 0.0 **** -0.24
18967 H 56.974049861087934 1.7761963651934707 98.56107685063927 H 0.0 **** 0.06
18968 H 55.22645707582927 1.4404142495209413 98.5499125090684 H 0.0 **** 0.06
18969 H 56.27653751027222 0.7371962577772422 97.29547416531142 H 0.0 **** 0.06
18970 H 55.94028893216759 2.4858630465143676 97.29731323014286 H 0.0 **** 0.06
18971 C 102.84911104669867 34.385031690488255 120.77693992035297 C 0.0 **** -0.24
18972 H 102.0912285795887 35.15609988483711 120.9192591773743 H 0.0 **** 0.06
18973 H 102.38112827683695 33.48652237536418 120.373170292877 H 0.0 **** 0.06
18974 H 103.31642456863977 34.15394766403622 121.73364828593637 H 0.0 **** 0.06
18975 H 103.60503126500919 34.745248018038275 120.07988865133657 H 0.0 **** 0.06
18976 C 121.3021202305213 18.468905171122287 112.9856231100764 C 0.0 **** -0.24
18977 H 122.2515878491028 17.934934290483113 113.00392570803801 H 0.0 **** 0.06
18978 H 121.33246859168722 19.28740542901062 113.70608553786928 H 0.0 **** 0.06
18979 H 120.4942619856035 17.784207007073974 113.24652014534036 H 0.0 **** 0.06
18980 H 121.13012743652213 18.87002510650933 111.98700708656524 H 0.0 **** 0.06
18981 C 6.732098051487572 27.100211987962894 67.29325615969164 C 0.0 **** -0.24
18982 H 7.533739810973447 26.367683773711576 67.1963921362307 H 0.0 **** 0.06
18983 H 6.221539729922959 27.20863631915637 66.33672438659542 H 0.0 **** 0.06
18984 H 7.1514079727222075 28.059978946587364 67.592946352477 H 0.0 **** 0.06
18985 H 6.021526131454618 26.7629943795136 68.04884640275822 H 0.0 **** 0.06
18986 C 100.586996864801 31.277152739379154 18.997352241077436 C 0.0 **** -0.24
18987 H 100.5775076677308 31.96141457856053 18.149759577476928 H 0.0 **** 0.06
18988 H 101.38776885100006 31.557512379126983 19.681155845368465 H 0.0 **** 0.06
18989 H 100.75252600224655 30.260336868272667 18.641030328345508 H 0.0 **** 0.06
18990 H 99.6301045816609 31.32861409518717 19.516256437352027 H 0.0 **** 0.06
18991 C 92.13404660544674 15.23987487572954 73.61409214412738 C 0.0 **** -0.24
18992 H 92.18002873035374 14.183621288452365 73.87804417763425 H 0.0 **** 0.06
18993 H 92.33787949549597 15.844432902036061 74.49760752481278 H 0.0 **** 0.06
18994 H 91.14003994003784 15.476859791759395 73.2328275579701 H 0.0 **** 0.06
18995 H 92.87830109598917 15.45431464431763 72.84650267108665 H 0.0 **** 0.06
18996 C 68.94917754457296 67.8807617903162 2.435857323930975 C 0.0 **** -0.24
18997 H 69.4426069852277 67.75393182554129 3.3994771946417757 H 0.0 **** 0.06
18998 H 67.87557253133645 67.99600558634378 2.589258503387441 H 0.0 **** 0.06
18999 H 69.13563456582094 67.00538213787695 1.8138412930007917 H 0.0 **** 0.06
19000 H 69.34286343578033 68.76882245565142 1.9399576780376435 H 0.0 **** 0.06
19001 C 78.61932274850366 67.38944943052229 40.19890509412181 C 0.0 **** -0.24
19002 H 79.33659779396174 66.78308502638035 40.75310315407836 H 0.0 **** 0.06
19003 H 78.30441577802922 68.23241883389755 40.8140684030613 H 0.0 **** 0.06
19004 H 77.75149028145573 66.78141747208858 39.94287644539207 H 0.0 **** 0.06
19005 H 79.08642210788875 67.75908315070112 39.28590628623891 H 0.0 **** 0.06
19006 C 87.46314898005201 43.775531074663974 47.3615481565026 C 0.0 **** -0.24
19007 H 86.41217394433963 43.60091987860571 47.5904500475532 H 0.0 **** 0.06
19008 H 87.55070500072921 44.62374508769224 46.68156527886942 H 0.0 **** 0.06
19009 H 87.88506228940625 42.887226830028624 46.891588128779674 H 0.0 **** 0.06
19010 H 88.00446356829471 43.99109587558689 48.28305619796663 H 0.0 **** 0.06
19011 C 96.7567045514393 4.887361116360623 33.33733042563132 C 0.0 **** -0.24
19012 H 96.21307091240773 5.749750541545481 32.951280347477464 H 0.0 **** 0.06
19013 H 96.88008092790375 4.989081320347594 34.416030121421755 H 0.0 **** 0.06
19014 H 97.73754689648214 4.833967290018563 32.862708248162285 H 0.0 **** 0.06
19015 H 96.19783472506873 3.978393094997159 33.11936196158247 H 0.0 **** 0.06
19016 C 120.87060790029844 71.10076698566229 122.44944344403405 C 0.0 **** -0.24
19017 H 120.84656323895109 70.6063440472825 123.4205590494467 H 0.0 **** 0.06
19018 H 121.87948412104626 71.46403571331183 122.25195332511845 H 0.0 **** 0.06
19019 H 120.17472452506885 71.9397997446489 122.4514612474182 H 0.0 **** 0.06
19020 H 120.58079072834784 70.39110755980721 121.67352895365028 H 0.0 **** 0.06
19021 C 17.84074532990421 73.30701268379107 112.98554900052783 C 0.0 **** -0.24
19022 H 18.6085681420373 72.5531601035029 113.16048939623002 H 0.0 **** 0.06
19023 H 17.142773574137863 72.94548007751138 112.23052694753947 H 0.0 **** 0.06
19024 H 18.308864078897173 74.2273093448928 112.63750798022254 H 0.0 **** 0.06
19025 H 17.304242693651986 73.50088361842444 113.91427591471883 H 0.0 **** 0.06
19026 C 77.00845051928954 57.05884412949956 33.98680316799155 C 0.0 **** -0.24
19027 H 76.28218441608493 57.60170199375082 34.592214288287465 H 0.0 **** 0.06
19028 H 76.95553209193696 57.40962822250259 32.956498442026486 H 0.0 **** 0.06
19029 H 76.7840308205158 55.9926615193519 34.02001692417869 H 0.0 **** 0.06
19030 H 78.01023478031811 57.231731491314534 34.38008546249421 H 0.0 **** 0.06
19031 C 19.896880048052992 5.961906156604471 112.15430713252897 C 0.0 **** -0.24
19032 H 19.910768095427954 6.379601827720592 113.16048609253966 H 0.0 **** 0.06
19033 H 20.34011341763255 4.965473619854748 112.16944533482001 H 0.0 **** 0.06
19034 H 20.47058429381201 6.604961520689926 111.48699915537742 H 0.0 **** 0.06
19035 H 18.867491969681737 5.897203686151016 111.80196713427023 H 0.0 **** 0.06
19036 C 87.76606522734502 118.90216392688154 106.36943473256028 C 0.0 **** -0.24
19037 H 88.54856778889747 119.6452622142896 106.52096146068638 H 0.0 **** 0.06
19038 H 87.57336284950229 118.38057863633489 107.30778401197145 H 0.0 **** 0.06
19039 H 88.08710425778845 118.18470061634522 105.61358547443382 H 0.0 **** 0.06
19040 H 86.85397531615968 119.39745566889019 106.03536164158285 H 0.0 **** 0.06
19041 C 49.51366425865926 65.93129099435521 56.615075572314666 C 0.0 **** -0.24
19042 H 50.42840918539977 65.93900080692684 56.023487104938624 H 0.0 **** 0.06
19043 H 49.691557331417684 66.43717954017399 57.56437614387549 H 0.0 **** 0.06
19044 H 49.212128006836394 64.90060103086849 56.80383689406483 H 0.0 **** 0.06
19045 H 48.723807995564044 66.44751562001149 56.07024451750952 H 0.0 **** 0.06
19046 C 109.7244892177026 21.188341307489146 93.85346350254656 C 0.0 **** -0.24
19047 H 110.69120327133683 21.00469083023836 94.32147536636802 H 0.0 **** 0.06
19048 H 109.04769073764064 20.365745008772436 94.08317815365027 H 0.0 **** 0.06
19049 H 109.8528335396692 21.26303801149399 92.77292385693013 H 0.0 **** 0.06
19050 H 109.30745138197977 22.120147751992576 94.23416922614211 H 0.0 **** 0.06
19051 C 82.50107857720337 8.203483535297323 118.35684986121123 C 0.0 **** -0.24
19052 H 82.6489220248904 7.134336898255697 118.20405751866065 H 0.0 **** 0.06
19053 H 81.8262836003502 8.588514786370126 117.59208819832082 H 0.0 **** 0.06
19054 H 83.46027443632582 8.716367314784236 118.2875733926448 H 0.0 **** 0.06
19055 H 82.06747036215128 8.37336178347141 119.3425364353738 H 0.0 **** 0.06
19056 C 117.30613693718391 64.38885155269193 93.57106504075824 C 0.0 **** -0.24
19057 H 116.59620594547135 65.10135305413161 93.15202416075671 H 0.0 **** 0.06
19058 H 117.71504081416839 63.77045871537565 92.77162482526519 H 0.0 **** 0.06
19059 H 116.79820231595681 63.75422537503776 94.2982677779971 H 0.0 **** 0.06
19060 H 118.11487145695179 64.92944314156478 94.06373731181432 H 0.0 **** 0.06
19061 C 57.23573132611483 99.50803830124823 50.33689265237163 C 0.0 **** -0.24
19062 H 57.23262987810034 99.73059198989733 49.2695534473273 H 0.0 **** 0.06
19063 H 57.407490128821095 98.44192159534879 50.484685689818065 H 0.0 **** 0.06
19064 H 56.27346559318356 99.78382338248352 50.76681460792807 H 0.0 **** 0.06
19065 H 58.02855105648702 100.07562845959326 50.823460181517504 H 0.0 **** 0.06
19066 C 31.132128700616477 58.12221714311221 88.57258689366229 C 0.0 **** -0.24
19067 H 31.168143113337067 59.006478353621105 87.93723996857535 H 0.0 **** 0.06
19068 H 30.475089537910378 58.31102244996009 89.42177110283447 H 0.0 **** 0.06
19069 H 32.135227988499196 57.89233815528934 88.93270383395271 H 0.0 **** 0.06
19070 H 30.750535880185225 57.278161118932644 87.99874979723928 H 0.0 **** 0.06
19071 C 45.06557232984997 83.78470390487055 13.245047916228259 C 0.0 **** -0.24
19072 H 45.39422773397848 83.83713914337733 14.282201130364431 H 0.0 **** 0.06
19073 H 44.04566463968878 83.40158903255013 13.205474825949015 H 0.0 **** 0.06
19074 H 45.725288343192744 83.11851832440354 12.687456345683756 H 0.0 **** 0.06
19075 H 45.09775291707416 84.78101522720743 12.802761889469398 H 0.0 **** 0.06
19076 C 38.275040950160985 61.22470575104833 16.98322266776904 C 0.0 **** -0.24
19077 H 38.8822036966169 62.11104157305765 16.79949212804189 H 0.0 **** 0.06
19078 H 38.301490801604245 60.57805521616851 16.106553311167943 H 0.0 **** 0.06
19079 H 37.2458950511151 61.52399040864886 17.183842121691043 H 0.0 **** 0.06
19080 H 38.67047730404488 60.68657868838535 17.84530103810971 H 0.0 **** 0.06
19081 C 113.39991989500709 34.009828422229816 100.72172306382595 C 0.0 **** -0.24
19082 H 113.43629957971677 33.6860736947325 99.68175379543405 H 0.0 **** 0.06
19083 H 114.30450351371638 33.68380565229711 101.23593934556882 H 0.0 **** 0.06
19084 H 112.52709973993876 33.57437613580646 101.20815290181426 H 0.0 **** 0.06
19085 H 113.3315971932584 35.09804983911454 100.76118176688746 H 0.0 **** 0.06
19086 C 79.92829416269518 60.49651254875886 69.44941578990569 C 0.0 **** -0.24
19087 H 80.40439122238496 60.769770666393754 68.50723940092189 H 0.0 **** 0.06
19088 H 79.2922331671678 59.62505136394431 69.29468210645109 H 0.0 **** 0.06
19089 H 79.322549000186 61.32996052778286 69.8047071561412 H 0.0 **** 0.06
19090 H 80.69382326444905 60.262277127825755 70.18880989478043 H 0.0 **** 0.06
19091 C 45.00838266697275 44.17892123535668 17.093317743026603 C 0.0 **** -0.24
19092 H 45.107381320032914 43.74587285568475 18.08870966406053 H 0.0 **** 0.06
19093 H 44.39424781046213 43.524501650629986 16.4730555387124 H 0.0 **** 0.06
19094 H 45.99442155109219 44.28694171300137 16.64354946689042 H 0.0 **** 0.06
19095 H 44.53404012481289 45.15710185664179 17.168706739341616 H 0.0 **** 0.06
19096 C 63.99671996133816 81.42087696728741 84.56134989148042 C 0.0 **** -0.24
19097 H 64.11474492568044 80.33782348767714 84.53613190885314 H 0.0 **** 0.06
19098 H 63.77570967009933 81.78595291133142 83.55769069335265 H 0.0 **** 0.06
19099 H 64.91802619129652 81.87856310092356 84.91985633690011 H 0.0 **** 0.06
19100 H 63.17646437067265 81.68030284938044 85.23100779625621 H 0.0 **** 0.06
19101 C 43.00322981134539 9.934841807154385 108.4434310695794 C 0.0 **** -0.24
19102 H 42.95636223802913 10.518721976950644 109.36194781648531 H 0.0 **** 0.06
19103 H 41.99447083918858 9.779421701578144 108.06011570992207 H 0.0 **** 0.06
19104 H 43.46707229993294 8.97002094473737 108.64914827716359 H 0.0 **** 0.06
19105 H 43.59440415095642 10.472189040640671 107.70170297026054 H 0.0 **** 0.06
19106 C 96.12883024372529 39.18959443160912 22.514051296697104 C 0.0 **** -0.24
19107 H 96.12611172214271 38.24145783923643 23.05381276015379 H 0.0 **** 0.06
19108 H 95.13176110435265 39.6299934556576 22.549836858476525 H 0.0 **** 0.06
19109 H 96.41344650590528 39.014489114251944 21.476592665182963 H 0.0 **** 0.06
19110 H 96.84353804461877 39.86850355376339 22.977782683282804 H 0.0 **** 0.06
19111 C 108.55792683789434 97.92776314200219 43.09288063709292 C 0.0 **** -0.24
19112 H 109.22650107631489 97.46727222205473 43.819853316690484 H 0.0 **** 0.06
19113 H 107.94308558508544 98.67889572270965 43.59035814765201 H 0.0 **** 0.06
19114 H 107.91527232435737 97.1635174710701 42.65664400526478 H 0.0 **** 0.06
19115 H 109.146092657542 98.40098251555818 42.30673619156755 H 0.0 **** 0.06
19116 C 51.26917568508796 47.194259148141555 64.18862774666533 C 0.0 **** -0.24
19117 H 52.178481062491045 47.58976443390365 64.64218265325607 H 0.0 **** 0.06
19118 H 50.43478329606364 47.321464325975846 64.87926293172151 H 0.0 **** 0.06
19119 H 51.40400010367294 46.134403872221405 63.97250537053006 H 0.0 **** 0.06
19120 H 51.060778636097155 47.73077624252678 63.2631696083815 H 0.0 **** 0.06
19121 C 27.26601453029565 56.18454323666428 2.6570178449242547 C 0.0 **** -0.24
19122 H 27.247051195799713 57.13960859832068 2.131740516926442 H 0.0 **** 0.06
19123 H 26.315959561719836 56.03244898153753 3.170012624734653 H 0.0 **** 0.06
19124 H 28.076559223593165 56.18668320435401 3.3863610234609354 H 0.0 **** 0.06
19125 H 27.42448814006997 55.379432162444914 1.9399572145752018 H 0.0 **** 0.06
19126 C 57.74833724216914 102.90538379472773 92.70878103393719 C 0.0 **** -0.24
19127 H 58.031928962487 102.07803710301152 93.3587578466742 H 0.0 **** 0.06
19128 H 58.130583211257544 102.72496051460527 91.70375655647865 H 0.0 **** 0.06
19129 H 58.16862423453186 103.83376703024138 93.09692814226804 H 0.0 **** 0.06
19130 H 56.66221256040028 102.98477053105265 92.67568159032805 H 0.0 **** 0.06
19131 C 34.43998220629686 80.66208837562618 38.5765367692147 C 0.0 **** -0.24
19132 H 33.71817069509851 80.85984884075717 37.78292997366427 H 0.0 **** 0.06
19133 H 34.66268281855278 81.59026771684569 39.103623383939436 H 0.0 **** 0.06
19134 H 35.35531807290647 80.26199816636728 38.1427491776829 H 0.0 **** 0.06
19135 H 34.021075999876814 79.93829551375626 39.27523782140079 H 0.0 **** 0.06
19136 C 3.895231533869321 43.70488368496411 71.6466255392933 C 0.0 **** -0.24
19137 H 4.3299706064963175 44.26222683291207 72.47539280124559 H 0.0 **** 0.06
19138 H 2.9296456302541998 44.139226371698335 71.383954447724 H 0.0 **** 0.06
19139 H 3.757327534301936 42.664004774558094 71.94146677831148 H 0.0 **** 0.06
19140 H 4.561933579178202 43.753287542100686 70.78611225387542 H 0.0 **** 0.06
19141 C 66.47713229728433 62.87445449158464 55.498029385520226 C 0.0 **** -0.24
19142 H 66.6414260751938 61.79677883303266 55.50593221133272 H 0.0 **** 0.06
19143 H 66.97275558888606 63.31037893309151 54.630256850048454 H 0.0 **** 0.06
19144 H 66.88767621454166 63.31071868677485 56.4086258651522 H 0.0 **** 0.06
19145 H 65.40701052870386 63.078611754464276 55.44696088563006 H 0.0 **** 0.06
19146 C 70.4857156364159 106.39581318017618 105.48752128374872 C 0.0 **** -0.24
19147 H 70.76451358222624 107.11285504925509 106.25988090679868 H 0.0 **** 0.06
19148 H 69.54265640461207 105.91940945218006 105.75788132286164 H 0.0 **** 0.06
19149 H 71.26383913426338 105.63695214152648 105.39918380958659 H 0.0 **** 0.06
19150 H 70.37283361578497 106.91328339568348 104.53525404648605 H 0.0 **** 0.06
19151 C 10.987351940225182 101.1423358182368 31.663279339936906 C 0.0 **** -0.24
19152 H 10.933749106234927 102.21736177979292 31.489481582533926 H 0.0 **** 0.06
19153 H 10.931403165104172 100.61672182046857 30.71001947657402 H 0.0 **** 0.06
19154 H 10.155354412422042 100.83515209640782 32.29741971455692 H 0.0 **** 0.06
19155 H 11.929045671590274 100.90067110128214 32.157485631955495 H 0.0 **** 0.06
19156 C 97.94522485719791 26.17061773044429 52.412993625442866 C 0.0 **** -0.24
19157 H 96.9989686563256 25.84861886695375 52.849267291700244 H 0.0 **** 0.06
19158 H 97.7759318535466 26.516170330876065 51.39388965239709 H 0.0 **** 0.06
19159 H 98.64272114216966 25.33259054203453 52.40245256944385 H 0.0 **** 0.06
19160 H 98.3619909891537 26.982694778018264 53.00946375212219 H 0.0 **** 0.06
19161 C 83.44898098981582 113.590578452036 5.575899085169368 C 0.0 **** -0.24
19162 H 83.369512707034 113.84043644143316 4.517608710322634 H 0.0 **** 0.06
19163 H 84.19208534610831 114.23456844382426 6.045654858030019 H 0.0 **** 0.06
19164 H 83.75081840485393 112.54915588090122 5.681553436861634 H 0.0 **** 0.06
19165 H 82.481686132167 113.73967133539969 6.0569414338542344 H 0.0 **** 0.06
19166 C 93.09580842119306 35.669529244706325 76.73710672680966 C 0.0 **** -0.24
19167 H 92.38599876914367 35.887564557005305 77.53528439281558 H 0.0 **** 0.06
19168 H 93.46274411424179 36.603780875816966 76.31209285160003 H 0.0 **** 0.06
19169 H 92.59927295533356 35.08669810939418 75.96089854594675 H 0.0 **** 0.06
19170 H 93.93188327561143 35.09956746656155 77.14142600172931 H 0.0 **** 0.06
19171 C 77.3667382987098 80.56233230324295 72.47099591241636 C 0.0 **** -0.24
19172 H 77.15886002532284 79.65972170195346 71.89576424522548 H 0.0 **** 0.06
19173 H 76.66726412229721 81.34617285863249 72.18049881263863 H 0.0 **** 0.06
19174 H 78.38637904468263 80.89158879126654 72.27220055484307 H 0.0 **** 0.06
19175 H 77.25455979729605 80.34885987460603 73.5335019867207 H 0.0 **** 0.06
19176 C 62.16494886506693 108.64785966066013 114.667386986568 C 0.0 **** -0.24
19177 H 62.081349562239154 109.60154074002384 114.146199626668 H 0.0 **** 0.06
19178 H 62.464723502490216 107.87286436481297 113.96098254177099 H 0.0 **** 0.06
19179 H 61.20047418900718 108.38760936277508 115.10423721842551 H 0.0 **** 0.06
19180 H 62.91109459082044 108.73006086661469 115.45715035445048 H 0.0 **** 0.06
19181 C 31.655216313549715 3.783991176039274 38.48529007245867 C 0.0 **** -0.24
19182 H 31.738466523015717 3.5547225094366333 39.547721715635305 H 0.0 **** 0.06
19183 H 30.813809375134362 3.236624286731381 38.06065664450644 H 0.0 **** 0.06
19184 H 32.57427312284732 3.4896921342481644 37.978224615229124 H 0.0 **** 0.06
19185 H 31.496077192851025 4.8540998583794455 38.35566056105765 H 0.0 **** 0.06
19186 C 68.17321879543917 5.9946714223981985 41.66114102495414 C 0.0 **** -0.24
19187 H 67.64400717166362 6.911156816769363 41.9200294737519 H 0.0 **** 0.06
19188 H 68.20573127502502 5.8885594276181905 40.57635674115246 H 0.0 **** 0.06
19189 H 67.65277449854418 5.140267968457806 42.09473671231057 H 0.0 **** 0.06
19190 H 69.18896711421897 6.038925699736694 42.05350003729845 H 0.0 **** 0.06
19191 C 78.73068205209529 39.893852729795384 121.51413701879727 C 0.0 **** -0.24
19192 H 79.05017522567923 40.024154936279075 120.48095500713971 H 0.0 **** 0.06
19193 H 79.03927728054498 40.75985391176005 122.10149445355351 H 0.0 **** 0.06
19194 H 79.18775693560725 38.99440305230115 121.9254404125428 H 0.0 **** 0.06
19195 H 77.64583390843086 39.79875859804517 121.55000164333167 H 0.0 **** 0.06
19196 C 122.8648988060695 12.404286655922022 13.910846151074253 C 0.0 **** -0.24
19197 H 123.60109827741398 11.627081036395225 14.112554843386391 H 0.0 **** 0.06
19198 H 121.91187478464853 12.129558503777957 14.36359928133976 H 0.0 **** 0.06
19199 H 122.73694263709164 12.513938696354899 12.833972271132069 H 0.0 **** 0.06
19200 H 123.20934340192062 13.348994089205178 14.333315762969619 H 0.0 **** 0.06
19201 C 36.53815320363776 97.58890453164561 84.29928664739832 C 0.0 **** -0.24
19202 H 37.57899935634225 97.4569254019289 84.00472345725885 H 0.0 **** 0.06
19203 H 36.10140665500981 96.61794677142966 84.53671091394827 H 0.0 **** 0.06
19204 H 35.983914636617214 98.04683122984466 83.4799323508914 H 0.0 **** 0.06
19205 H 36.48832971685397 98.233481519942 85.17668041087667 H 0.0 **** 0.06
19206 C 22.722407901565163 30.749949521867514 120.93308147167704 C 0.0 **** -0.24
19207 H 23.524499385362674 30.448688729701956 120.25928410281486 H 0.0 **** 0.06
19208 H 22.365858364221793 29.880553512713675 121.48517448617852 H 0.0 **** 0.06
19209 H 21.902596467407648 31.17483470648432 120.35472392960574 H 0.0 **** 0.06
19210 H 23.09758078400344 31.49718179347478 121.63291858805323 H 0.0 **** 0.06
19211 C 69.24168175702266 118.59131403994778 121.71710942572969 C 0.0 **** -0.24
19212 H 69.67785551022115 118.48346710554867 120.72388074219143 H 0.0 **** 0.06
19213 H 68.85871772448655 117.62662499213698 122.05228009802562 H 0.0 **** 0.06
19214 H 68.42614105656799 119.31347308215157 121.67847794527655 H 0.0 **** 0.06
19215 H 70.0047949970008 118.9413179878112 122.41329991894084 H 0.0 **** 0.06
19216 C 31.998550747670237 68.9020279361689 27.364030198294984 C 0.0 **** -0.24
19217 H 32.54807569756073 68.02260907904105 27.70145362607809 H 0.0 **** 0.06
19218 H 31.623158107084322 68.73000552583602 26.35484319416304 H 0.0 **** 0.06
19219 H 32.66253335668037 69.76586978648538 27.36302734836522 H 0.0 **** 0.06
19220 H 31.16213822953577 69.08754418932864 28.037669946066444 H 0.0 **** 0.06
19221 C 122.63104229938085 4.5986528496577534 113.2815170369071 C 0.0 **** -0.24
19222 H 122.15546842888016 3.673879042262854 113.60855926402746 H 0.0 **** 0.06
19223 H 123.05673598652854 4.4564667472956785 112.28852475600112 H 0.0 **** 0.06
19224 H 123.42283840180644 4.866764573050574 113.98228293169436 H 0.0 **** 0.06
19225 H 121.88984770926706 5.397047976124838 113.24899787677245 H 0.0 **** 0.06
19226 C 54.24093490470669 106.44888421175256 116.3305682308007 C 0.0 **** -0.24
19227 H 55.1555372460312 107.01745878006506 116.16416453378746 H 0.0 **** 0.06
19228 H 53.84195003894121 106.68447725310978 117.3176912001235 H 0.0 **** 0.06
19229 H 54.45865566379349 105.38263172961754 116.27156818795875 H 0.0 **** 0.06
19230 H 53.506296445900986 106.71211726937969 115.56984464306717 H 0.0 **** 0.06
19231 C 34.0425758713819 97.09127034046392 109.43662965352277 C 0.0 **** -0.24
19232 H 34.592968154031325 98.00854095708098 109.6473633517729 H 0.0 **** 0.06
19233 H 33.550015222715956 96.74699232131023 110.34665735851789 H 0.0 **** 0.06
19234 H 34.73484700625198 96.32453618332636 109.0868079991304 H 0.0 **** 0.06
19235 H 33.294674628065025 97.28431310093853 108.66863366344413 H 0.0 **** 0.06
19236 C 56.32522157581673 52.70796834962832 83.24740268906415 C 0.0 **** -0.24
19237 H 56.68394334698061 52.407525768833494 84.23181045438155 H 0.0 **** 0.06
19238 H 55.36344060919609 52.23372539034507 83.05093203529107 H 0.0 **** 0.06
19239 H 57.044445320946096 52.39729995954616 82.48888629583196 H 0.0 **** 0.06
19240 H 56.21006716191843 53.79110630667128 83.21654338886346 H 0.0 **** 0.06
19241 C 56.256160695747155 121.67842472689782 95.92827168013923 C 0.0 **** -0.24
19242 H 55.487385652992714 121.06565946764988 95.45709506858071 H 0.0 **** 0.06
19243 H 56.9996823695775 121.03217240934231 96.39679518049326 H 0.0 **** 0.06
19244 H 55.79952521941817 122.31554715504551 96.68464769568732 H 0.0 **** 0.06
19245 H 56.7386123928068 122.2986139458314 95.17321713404684 H 0.0 **** 0.06
19246 C 15.670917053673804 61.541815750796275 71.41059080359275 C 0.0 **** -0.24
19247 H 15.905403329936206 62.53982282219482 71.77907378545962 H 0.0 **** 0.06
19248 H 15.284517348004414 61.612038962394365 70.393509830136 H 0.0 **** 0.06
19249 H 14.91906438100375 61.08475075987752 72.05464507746575 H 0.0 **** 0.06
19250 H 16.57350672564951 60.93089953949624 71.41587888562248 H 0.0 **** 0.06
19251 C 85.74542326924276 55.216697299458346 5.808628087120553 C 0.0 **** -0.24
19252 H 86.09377631736882 55.554123120847194 4.832081766660224 H 0.0 **** 0.06
19253 H 86.42969692577962 55.57120430704366 6.580425424939136 H 0.0 **** 0.06
19254 H 85.71195455543682 54.12784422583074 5.825104640319125 H 0.0 **** 0.06
19255 H 84.74812147954259 55.61423384004077 5.995816558671322 H 0.0 **** 0.06
19256 C 53.64236103425574 119.773495090631 21.96748458588013 C 0.0 **** -0.24
19257 H 52.71906473128749 119.97367812222615 22.511432575441944 H 0.0 **** 0.06
19258 H 53.738611938395906 120.47957302297351 21.14324228241682 H 0.0 **** 0.06
19259 H 53.61919385512982 118.75716135637424 21.575190448805927 H 0.0 **** 0.06
19260 H 54.49108009519438 119.88346555403933 22.642011918482893 H 0.0 **** 0.06
19261 C 12.465055893247815 106.11606286979553 63.47149446622282 C 0.0 **** -0.24
19262 H 11.492595378228526 105.81500925170604 63.859257146429044 H 0.0 **** 0.06
19263 H 12.492129513548278 107.20020010666882 63.35622848733158 H 0.0 **** 0.06
19264 H 12.632955616257291 105.6432795573072 62.503532504335126 H 0.0 **** 0.06
19265 H 13.244732230414957 105.80547827642758 64.16731610240996 H 0.0 **** 0.06
19266 C 47.372497341706136 45.12394417143044 93.66145031540853 C 0.0 **** -0.24
19267 H 46.377744277163856 44.789466685814354 93.36662685729836 H 0.0 **** 0.06
19268 H 47.41817991772169 45.215035093306554 94.74696599325415 H 0.0 **** 0.06
19269 H 47.57926736119197 46.09250662832016 93.2057292854553 H 0.0 **** 0.06
19270 H 48.113702285591586 44.399462473377085 93.32533104955179 H 0.0 **** 0.06
19271 C 96.04134868328825 32.642049185783286 122.94302124240859 C 0.0 **** -0.24
19272 H 96.2325210535303 31.93400552003102 122.13740536975003 H 0.0 **** 0.06
19273 H 95.8444428774087 33.62789225299136 122.52095573232992 H 0.0 **** 0.06
19274 H 96.91309878367885 32.69427563406112 123.59544279311203 H 0.0 **** 0.06
19275 H 95.17673984866855 32.31302704388825 123.51817741268545 H 0.0 **** 0.06
19276 C 57.74834731266915 102.43182747991152 71.92617699978211 C 0.0 **** -0.24
19277 H 57.2681636569539 102.65925858371371 70.97423189725328 H 0.0 **** 0.06
19278 H 58.48568321293122 101.64177500364555 71.78135780057698 H 0.0 **** 0.06
19279 H 56.99600567699149 102.10091465498401 72.64198875027728 H 0.0 **** 0.06
19280 H 58.242884097301854 103.3255745178736 72.30640232528339 H 0.0 **** 0.06
19281 C 109.29804035784872 41.29098206544032 112.24754225297207 C 0.0 **** -0.24
19282 H 109.5226440294667 42.14419770815738 111.60644238858467 H 0.0 **** 0.06
19283 H 108.26963265848886 41.36662310884762 112.60375687612446 H 0.0 **** 0.06
19284 H 109.97838576960174 41.28713114031689 113.09883654432596 H 0.0 **** 0.06
19285 H 109.41979402883905 40.368854131885655 111.68023213946591 H 0.0 **** 0.06
19286 C 2.9206088493146467 23.149592222142786 8.095476891249803 C 0.0 **** -0.24
19287 H 2.637890985085363 24.182201045255198 8.296373015030497 H 0.0 **** 0.06
19288 H 2.108727848891249 22.485448854243657 8.394072946976678 H 0.0 **** 0.06
19289 H 3.8195614242472686 22.90267565018698 8.661948675123199 H 0.0 **** 0.06
19290 H 3.1173886638327133 23.027014485328408 7.03032332453796 H 0.0 **** 0.06
19291 C 107.25982227776234 93.68669676688086 31.734047173056297 C 0.0 **** -0.24
19292 H 107.88092449111522 93.85450819871862 32.61409778971691 H 0.0 **** 0.06
19293 H 106.3483587566173 93.16417996499037 32.02695881164719 H 0.0 **** 0.06
19294 H 107.80873894565079 93.08402557139861 31.011475688668668 H 0.0 **** 0.06
19295 H 107.00045261839401 94.64523566262567 31.285384456965105 H 0.0 **** 0.06
19296 C 113.74180001415894 93.04390341980918 59.07199299780953 C 0.0 **** -0.24
19297 H 113.77752302267211 93.93927796651987 59.69142250770835 H 0.0 **** 0.06
19298 H 112.8007644921869 92.52148926053346 59.243166247849985 H 0.0 **** 0.06
19299 H 114.5734520312694 92.38861223996732 59.33226427193904 H 0.0 **** 0.06
19300 H 113.81597222456197 93.32463786341758 58.021554830820236 H 0.0 **** 0.06
19301 C 92.85515496089955 90.65586777739844 71.18791129621806 C 0.0 **** -0.24
19302 H 93.20249407069093 91.25309986856843 70.34533130915193 H 0.0 **** 0.06
19303 H 93.32176478182147 89.67099262643046 71.15138775254027 H 0.0 **** 0.06
19304 H 91.77236065688095 90.54700149185612 71.13352114444079 H 0.0 **** 0.06
19305 H 93.12548565811265 91.1518816811074 72.12066436321837 H 0.0 **** 0.06
19306 C 31.97216534949331 91.6569796021676 109.70377879238869 C 0.0 **** -0.24
19307 H 32.83717524348168 91.3635618602353 110.29730178168809 H 0.0 **** 0.06
19308 H 32.14269058404193 91.39793217270122 108.6594698299383 H 0.0 **** 0.06
19309 H 31.81890332621026 92.73308626218623 109.7918979027183 H 0.0 **** 0.06
19310 H 31.087617101148965 91.13365340329841 110.06837562901934 H 0.0 **** 0.06
19311 C 86.83828923579844 15.839675595317942 109.65322948584867 C 0.0 **** -0.24
19312 H 86.955585470156 15.45281812127206 110.66529992503014 H 0.0 **** 0.06
19313 H 86.70565286730465 15.008718625502297 108.96032774672446 H 0.0 **** 0.06
19314 H 87.72812436981988 16.40565803849279 109.37632687896301 H 0.0 **** 0.06
19315 H 85.9663618683806 16.49178284912074 109.61278877906719 H 0.0 **** 0.06
19316 C 85.87386183747753 79.30429890282596 6.0596986482492525 C 0.0 **** -0.24
19317 H 85.97434991126163 78.35705202782772 6.587952490677253 H 0.0 **** 0.06
19318 H 86.8475100622415 79.61183483812967 5.677170828910107 H 0.0 **** 0.06
19319 H 85.49488277787283 80.0638149312364 6.7434017806892825 H 0.0 **** 0.06
19320 H 85.1788645894542 79.18455995779574 5.228865877685564 H 0.0 **** 0.06
19321 C 27.340802855609525 14.599466646147278 78.15491444845546 C 0.0 **** -0.24
19322 H 26.59333854098537 14.137355448819832 78.80075507442508 H 0.0 **** 0.06
19323 H 27.309604651448126 14.129528840868616 77.17176753478607 H 0.0 **** 0.06
19324 H 28.33042172140722 14.465569691485811 78.59150556315318 H 0.0 **** 0.06
19325 H 27.128219605984953 15.663617747639194 78.0559929427709 H 0.0 **** 0.06
19326 C 93.64348563743083 88.85293224512819 78.1814047153677 C 0.0 **** -0.24
19327 H 93.18434255016942 88.53127413457213 77.24641786387247 H 0.0 **** 0.06
19328 H 94.56021797035616 88.28678490795302 78.34907635708493 H 0.0 **** 0.06
19329 H 92.95174257571435 88.67723468798664 79.00474763754568 H 0.0 **** 0.06
19330 H 93.87835395797616 89.91492954060367 78.12427131900085 H 0.0 **** 0.06
19331 C 4.1991745600069095 115.39992051804211 101.32831702458955 C 0.0 **** -0.24
19332 H 4.436340569828104 116.19559402262536 102.03459152395553 H 0.0 **** 0.06
19333 H 4.041058025440975 115.82775273275104 100.33809558965086 H 0.0 **** 0.06
19334 H 3.293889642475989 114.88583529582924 101.65239162938931 H 0.0 **** 0.06
19335 H 5.02616602334534 114.69058644406961 101.29091357858923 H 0.0 **** 0.06
19336 C 27.178594118709988 15.477280640952301 17.1512321286493 C 0.0 **** -0.24
19337 H 28.00568883194382 14.784200048810874 16.99462311910748 H 0.0 **** 0.06
19338 H 27.46073575218422 16.21713502495379 17.90063610688581 H 0.0 **** 0.06
19339 H 26.303389185037425 14.927068363589626 17.49510335450315 H 0.0 **** 0.06
19340 H 26.945343876441875 15.980546898854868 16.212250673504595 H 0.0 **** 0.06
19341 C 7.903184603589011 77.68944396163117 106.94316515095078 C 0.0 **** -0.24
19342 H 8.80785966937026 78.09783702335112 107.3949039064544 H 0.0 **** 0.06
19343 H 7.04647567183855 78.29851949560721 107.23183367243222 H 0.0 **** 0.06
19344 H 7.7560041403820605 76.66572124046488 107.28699999100765 H 0.0 **** 0.06
19345 H 8.005243762996713 77.69647635551425 105.85740585590601 H 0.0 **** 0.06
19346 C 64.87067878917236 71.93301801361427 123.24644241288266 C 0.0 **** -0.24
19347 H 64.4851634105541 71.6135464995511 122.27733940234033 H 0.0 **** 0.06
19348 H 64.04181472699446 72.0512294441864 123.9457694004135 H 0.0 **** 0.06
19349 H 65.389340496785 72.88554157466432 123.13386509245036 H 0.0 **** 0.06
19350 H 65.56424595519815 71.18314283781952 123.62693881923859 H 0.0 **** 0.06
19351 C 20.022721053869304 18.435628672523364 7.2423413507532075 C 0.0 **** -0.24
19352 H 20.746374643152535 19.245366397794385 7.141207354664488 H 0.0 **** 0.06
19353 H 19.969379202801406 18.124836969396767 8.286188524561751 H 0.0 **** 0.06
19354 H 20.333816068595524 17.59259653251479 6.6263792213004535 H 0.0 **** 0.06
19355 H 19.042493774698755 18.782643434874217 6.915410248796576 H 0.0 **** 0.06
19356 C 119.69716847440068 2.0831070254383803 75.7692320721595 C 0.0 **** -0.24
19357 H 118.74966399118188 1.550480088278448 75.85201201066423 H 0.0 **** 0.06
19358 H 120.52094417446055 1.372513263585347 75.84136974328823 H 0.0 **** 0.06
19359 H 119.77419983790917 2.812783059085973 76.57508549785007 H 0.0 **** 0.06
19360 H 119.74298741396164 2.5965012208954477 74.80891456209756 H 0.0 **** 0.06
19361 C 91.60295869325729 61.46532583702748 114.00909154002663 C 0.0 **** -0.24
19362 H 90.73458272141218 60.87816260028285 114.30720425510232 H 0.0 **** 0.06
19363 H 92.07825245282976 60.99620870649153 113.14671705594844 H 0.0 **** 0.06
19364 H 92.31216684715372 61.51002754449968 114.83530351764284 H 0.0 **** 0.06
19365 H 91.28613547560798 62.4736079082511 113.74551435243923 H 0.0 **** 0.06
19366 C 78.18011481733154 101.3257060413188 75.55411113840583 C 0.0 **** -0.24
19367 H 79.16993451245096 101.72513073715837 75.32994007107156 H 0.0 **** 0.06
19368 H 77.94234009210635 100.52788382296433 74.84995800366 H 0.0 **** 0.06
19369 H 77.44024301360922 102.12100644800279 75.46730302130238 H 0.0 **** 0.06
19370 H 78.17161378127398 100.92950744780454 76.56938553442713 H 0.0 **** 0.06
19371 C 38.97488090363976 48.017110761044506 6.076729386122906 C 0.0 **** -0.24
19372 H 39.02742869392392 49.103591958092466 6.012122835777319 H 0.0 **** 0.06
19373 H 39.86581043392263 47.63959680777438 6.578672112395054 H 0.0 **** 0.06
19374 H 38.91623350115333 47.596045302047344 5.0734522432079245 H 0.0 **** 0.06
19375 H 38.08809935794264 47.730651384219186 6.643003415687076 H 0.0 **** 0.06
19376 C 23.792678401691774 39.59226489862047 83.1442282872884 C 0.0 **** -0.24
19377 H 23.366676222168223 38.60858840063872 82.9462499863875 H 0.0 **** 0.06
19378 H 24.38045106979797 39.91201471666531 82.28450450376982 H 0.0 **** 0.06
19379 H 24.433368358546147 39.53911967223054 84.02405988147183 H 0.0 **** 0.06
19380 H 22.98875732043041 40.30666833003838 83.32123487886906 H 0.0 **** 0.06
19381 C 14.4737420760884 96.044918874617 62.20264783896275 C 0.0 **** -0.24
19382 H 14.010028588920335 96.76959325259469 61.53240413336975 H 0.0 **** 0.06
19383 H 15.106032561853027 96.56801753162557 62.921454733190046 H 0.0 **** 0.06
19384 H 15.080953166823974 95.35157432695684 61.621413211885 H 0.0 **** 0.06
19385 H 13.697892746390494 95.49300371920503 62.73254796669801 H 0.0 **** 0.06
19386 C 57.27447485862997 24.345045118320627 48.180756056468084 C 0.0 **** -0.24
19387 H 56.34503171754227 24.51546773262629 48.72417513323687 H 0.0 **** 0.06
19388 H 57.402376735623776 25.12335121548648 47.42806324645492 H 0.0 **** 0.06
19389 H 57.23848607959896 23.37054553323918 47.694619214534335 H 0.0 **** 0.06
19390 H 58.1121143297258 24.372187016694625 48.87792974954764 H 0.0 **** 0.06
19391 C 55.48725918723041 85.2250963945273 116.69186153784777 C 0.0 **** -0.24
19392 H 55.07639562948637 84.40095482439298 116.10836729039947 H 0.0 **** 0.06
19393 H 56.16745375287326 84.8313221139888 117.44758762296416 H 0.0 **** 0.06
19394 H 54.674268654133016 85.7641740432064 117.17842849085059 H 0.0 **** 0.06
19395 H 56.028502040183966 85.90202198109824 116.03148089984265 H 0.0 **** 0.06
19396 C 51.68206351521525 8.465384666514822 37.20292653052928 C 0.0 **** -0.24
19397 H 51.17697371762662 8.319251083446133 36.24759358619525 H 0.0 **** 0.06
19398 H 52.67510787935254 8.878936695784304 37.02814010053879 H 0.0 **** 0.06
19399 H 51.77256189650694 7.507410388260453 37.715574621305876 H 0.0 **** 0.06
19400 H 51.103796954868955 9.153571528039848 37.81787712333423 H 0.0 **** 0.06
19401 C 32.430755909498714 70.80483733004112 55.11981442736884 C 0.0 **** -0.24
19402 H 33.008998754285365 71.15370624271523 54.26520380737652 H 0.0 **** 0.06
19403 H 31.463630994346346 70.43665403520927 54.778406852895586 H 0.0 **** 0.06
19404 H 32.28004973364039 71.62918732861365 55.81824662961161 H 0.0 **** 0.06
19405 H 32.97033838652731 70.00007459499449 55.62021572267777 H 0.0 **** 0.06
19406 C 47.666096734256115 8.911159781101617 40.03188153781381 C 0.0 **** -0.24
19407 H 47.30650583492755 9.556875402939852 39.23137708929924 H 0.0 **** 0.06
19408 H 46.820885735352704 8.567240864698931 40.628118786283636 H 0.0 **** 0.06
19409 H 48.35540390223733 9.46749026120267 40.66579923452293 H 0.0 **** 0.06
19410 H 48.181171873460244 8.051921469896968 39.60146328444912 H 0.0 **** 0.06
19411 C 60.07514165755592 31.074202617832185 24.08783173162705 C 0.0 **** -0.24
19412 H 60.42401448635172 30.62212847572954 23.15950775051823 H 0.0 **** 0.06
19413 H 60.86746928309006 31.027040245013325 24.834953111711414 H 0.0 **** 0.06
19414 H 59.2018425470815 30.53046621613977 24.450674942343966 H 0.0 **** 0.06
19415 H 59.80580515083241 32.113903449252746 23.906675335872002 H 0.0 **** 0.06
19416 C 74.00567378943225 6.523005985656198 72.08174811291642 C 0.0 **** -0.24
19417 H 74.69777159410253 7.2450646091433555 72.5156164193003 H 0.0 **** 0.06
19418 H 72.98610205789748 6.77594410809516 72.37588345650497 H 0.0 **** 0.06
19419 H 74.25100877426561 5.524251070016476 72.44197864559854 H 0.0 **** 0.06
19420 H 74.08783648226495 6.548833917503856 70.99568556633187 H 0.0 **** 0.06
19421 C 24.470627745042776 44.55687781718843 4.423398449702347 C 0.0 **** -0.24
19422 H 24.50582697473172 45.46352574152115 5.028189580501987 H 0.0 **** 0.06
19423 H 23.56583227141337 44.56190692422564 3.814935953588588 H 0.0 **** 0.06
19424 H 24.464447236952054 43.6841093435438 5.077128328681454 H 0.0 **** 0.06
19425 H 25.34545981453627 44.51893140359114 3.773766504703815 H 0.0 **** 0.06
19426 C 103.53830691938174 52.28546178891291 106.18839299873241 C 0.0 **** -0.24
19427 H 103.18429012807161 51.341254118831245 106.60348425475736 H 0.0 **** 0.06
19428 H 104.38323638453568 52.09673373813355 105.52559539194786 H 0.0 **** 0.06
19429 H 103.85033427002611 52.944337357264516 106.9983402761822 H 0.0 **** 0.06
19430 H 102.73332478516033 52.75863421279897 105.62594714803903 H 0.0 **** 0.06
19431 C 42.9559157265368 8.879544003311135 70.85280825455067 C 0.0 **** -0.24
19432 H 43.52267159363551 8.000222752310687 70.545146616061 H 0.0 **** 0.06
19433 H 42.427966901156765 9.290027888851725 69.99193036705788 H 0.0 **** 0.06
19434 H 43.6378253926662 9.629525156819351 71.25277093819881 H 0.0 **** 0.06
19435 H 42.23532902166511 8.597499008037616 71.62030295455992 H 0.0 **** 0.06
19436 C 110.20523472715381 53.31950927192358 67.25292689477963 C 0.0 **** -0.24
19437 H 109.14626321908436 53.428733027901984 67.48646963615016 H 0.0 **** 0.06
19438 H 110.7923187025286 53.94397624027326 67.92685208043578 H 0.0 **** 0.06
19439 H 110.3834005592174 53.62920584983263 66.22316300379596 H 0.0 **** 0.06
19440 H 110.49850208036736 52.2774551885048 67.37509556673425 H 0.0 **** 0.06
19441 C 51.31356544922028 32.78177119878001 1.1439641054971332 C 0.0 **** -0.24
19442 H 51.17941670810478 33.85506871207792 1.0081911843949456 H 0.0 **** 0.06
19443 H 51.03863559660488 32.262464914533325 0.22557459192219653 H 0.0 **** 0.06
19444 H 50.67930922627539 32.436757838246365 1.9609822025965116 H 0.0 **** 0.06
19445 H 52.356900265895774 32.57279333026247 1.3811084430747087 H 0.0 **** 0.06
19446 C 94.54708839920397 79.10787181669082 113.33332525342118 C 0.0 **** -0.24
19447 H 94.67392215346621 78.25087291245157 113.99485362524536 H 0.0 **** 0.06
19448 H 94.96628571321207 78.87659246694446 112.3539314618994 H 0.0 **** 0.06
19449 H 95.06178505525821 79.97079523653517 113.75457597659172 H 0.0 **** 0.06
19450 H 93.48546973824023 79.33273692185307 113.23092305964744 H 0.0 **** 0.06
19451 C 44.150153837779406 22.468678285853088 118.50312232724175 C 0.0 **** -0.24
19452 H 44.49013227967041 22.98363863062432 117.6040515498292 H 0.0 **** 0.06
19453 H 43.44197793073492 23.101457899375212 119.03813593051675 H 0.0 **** 0.06
19454 H 45.005437910796836 22.255893281214398 119.14487105656077 H 0.0 **** 0.06
19455 H 43.66410289195023 21.53440782381373 118.22331909094808 H 0.0 **** 0.06
19456 C 77.87882264590172 0.5364862641106924 51.098995242532425 C 0.0 **** -0.24
19457 H 78.74002733155315 0.5889181890715065 50.43302070753623 H 0.0 **** 0.06
19458 H 76.9656803899621 0.6970233903351186 50.52491788223843 H 0.0 **** 0.06
19459 H 77.96512574930044 1.3048444758373705 51.86766042988394 H 0.0 **** 0.06
19460 H 77.8433827284392 -0.4462214936525015 51.5689890397245 H 0.0 **** 0.06
19461 C 106.60628015482838 104.37574577393741 16.02218573068083 C 0.0 **** -0.24
19462 H 106.03005646276426 105.29792496273554 15.939981310610904 H 0.0 **** 0.06
19463 H 107.59645721235893 104.52813413593198 15.592842180702092 H 0.0 **** 0.06
19464 H 106.09425144212065 103.57877866940933 15.483562761008272 H 0.0 **** 0.06
19465 H 106.70353746744829 104.10159837545355 17.072995401560462 H 0.0 **** 0.06
19466 C 100.0982493940416 106.05357391662875 12.367450823403615 C 0.0 **** -0.24
19467 H 100.99868441598159 106.16027792547436 11.763316168191025 H 0.0 **** 0.06
19468 H 99.83865530792917 107.01751487904994 12.805922575552145 H 0.0 **** 0.06
19469 H 100.27706538910522 105.32938485275326 13.161772992052164 H 0.0 **** 0.06
19470 H 99.27747059561048 105.70794455116021 11.738550002607695 H 0.0 **** 0.06
19471 C 26.163374890995186 12.054490662193501 49.06923340380775 C 0.0 **** -0.24
19472 H 25.114391885077538 11.839986042930349 49.27396283214018 H 0.0 **** 0.06
19473 H 26.78747331293104 11.56223943067667 49.81540470958992 H 0.0 **** 0.06
19474 H 26.327727277781122 13.131495518527146 49.11129969210076 H 0.0 **** 0.06
19475 H 26.422401653320946 11.686048207590261 48.07695221028443 H 0.0 **** 0.06
19476 C 24.526725446012478 12.751782165188914 121.36650714052946 C 0.0 **** -0.24
19477 H 24.68538838496778 11.924293559831014 120.67443530301412 H 0.0 **** 0.06
19478 H 25.443773057721017 13.33554129474912 121.45087363073807 H 0.0 **** 0.06
19479 H 24.253185176537528 12.358242411185998 122.34532626223779 H 0.0 **** 0.06
19480 H 23.724150772222572 13.388128415812687 120.99339715867816 H 0.0 **** 0.06
19481 C 41.270141126448664 77.8328943567167 24.60044364501755 C 0.0 **** -0.24
19482 H 40.66855026128758 77.34522971061176 25.367701976774583 H 0.0 **** 0.06
19483 H 40.90615429108033 77.54299529411766 23.61448378106448 H 0.0 **** 0.06
19484 H 42.3114452518912 77.529536587513 24.7076512700024 H 0.0 **** 0.06
19485 H 41.19373451527588 78.9142545566559 24.713097283610608 H 0.0 **** 0.06
19486 C 114.75605620292967 119.96311661097027 122.72639964610525 C 0.0 **** -0.24
19487 H 114.79445924039953 120.99963085701424 123.06023955943246 H 0.0 **** 0.06
19488 H 115.77078919396286 119.59407005907482 122.57246659116421 H 0.0 **** 0.06
19489 H 114.20072906444315 119.90217821243849 121.79058130113268 H 0.0 **** 0.06
19490 H 114.26008339273324 119.35551038511429 123.48299618763264 H 0.0 **** 0.06
19491 C 31.585860568296823 101.07198466707806 80.37440124683954 C 0.0 **** -0.24
19492 H 31.86453278809256 102.12594332976849 80.37946684847492 H 0.0 **** 0.06
19493 H 30.520521901625898 100.97897944653994 80.16370892338597 H 0.0 **** 0.06
19494 H 31.80412073116088 100.63466710817649 81.3494872150838 H 0.0 **** 0.06
19495 H 32.15618395056373 100.54915781435226 79.60576082396324 H 0.0 **** 0.06
19496 C 85.15721915290142 92.05727376210322 33.19838786976584 C 0.0 **** -0.24
19497 H 85.06909996414824 93.12297775018567 33.41172509975888 H 0.0 **** 0.06
19498 H 84.327774627576 91.74482270137798 32.56355336470938 H 0.0 **** 0.06
19499 H 85.13014535663301 91.49694880257158 34.13351123738488 H 0.0 **** 0.06
19500 H 86.0999496936905 91.86637280469411 32.68656601825211 H 0.0 **** 0.06
19501 C 1.8310429298371602 31.527980299825813 57.220989581929956 C 0.0 **** -0.24
19502 H 1.1241404554157857 32.33311032496812 57.01957641618286 H 0.0 **** 0.06
19503 H 1.5248947545624478 30.993405020376912 58.1209431044844 H 0.0 **** 0.06
19504 H 2.825694326917354 31.948061679755455 57.36770664956839 H 0.0 **** 0.06
19505 H 1.8471199571098627 30.83917977765384 56.37622032962629 H 0.0 **** 0.06
19506 C 10.166364308783386 29.71237267163363 25.523455751808314 C 0.0 **** -0.24
19507 H 10.430300655478732 28.699025266418708 25.825113368571863 H 0.0 **** 0.06
19508 H 10.814675249469815 30.028539331492638 24.70568296937668 H 0.0 **** 0.06
19509 H 10.293856561270331 30.388343378792385 26.36886809233235 H 0.0 **** 0.06
19510 H 9.127958274070807 29.735307099904837 25.194657085719058 H 0.0 **** 0.06
19511 C 92.20975506418557 28.093871635688544 12.144153290676318 C 0.0 **** -0.24
19512 H 92.17847575912575 28.196239811181243 13.229152415006148 H 0.0 **** 0.06
19513 H 92.93780091292771 28.793129091454915 11.733704845244414 H 0.0 **** 0.06
19514 H 91.2243151998762 28.310775085064726 11.731417424399222 H 0.0 **** 0.06
19515 H 92.49605432096845 27.074904224150117 11.885016608745385 H 0.0 **** 0.06
19516 C 59.848343013668284 28.500663578999507 49.4017592106203 C 0.0 **** -0.24
19517 H 59.67016610884292 27.954245459845396 50.32745294499438 H 0.0 **** 0.06
19518 H 59.33263203758568 28.002044368092015 48.58038972067385 H 0.0 **** 0.06
19519 H 60.918672836396695 28.527154382559843 49.195846492637145 H 0.0 **** 0.06
19520 H 59.47243892456365 29.51857126271736 49.502797549666866 H 0.0 **** 0.06
19521 C 51.76076942907176 100.00948143991587 86.37008781947011 C 0.0 **** -0.24
19522 H 51.038949750579064 100.09944519017097 85.55870471144988 H 0.0 **** 0.06
19523 H 51.825568436198296 98.96795380627469 86.68527347239049 H 0.0 **** 0.06
19524 H 51.43985489291191 100.6248303596081 87.21151123053758 H 0.0 **** 0.06
19525 H 52.737916727987056 100.34758096373002 86.02577175431563 H 0.0 **** 0.06
19526 C 94.96979705352453 87.17417905452565 48.41464343191973 C 0.0 **** -0.24
19527 H 94.55170287548657 88.09668704710946 48.01014492655139 H 0.0 **** 0.06
19528 H 94.18746401045917 86.61584662933525 48.928803544945595 H 0.0 **** 0.06
19529 H 95.767622521882 87.41495348955505 49.116955955761284 H 0.0 **** 0.06
19530 H 95.37267285823071 86.57042833044537 47.600801977444405 H 0.0 **** 0.06
19531 C 51.92037295706197 70.63422339614229 76.66362069667278 C 0.0 **** -0.24
19532 H 51.40712472609468 69.69617242302624 76.8751303469598 H 0.0 **** 0.06
19533 H 52.93360515962124 70.42357291048401 76.32018274043365 H 0.0 **** 0.06
19534 H 51.96197918973196 71.23850076279712 77.56983010534401 H 0.0 **** 0.06
19535 H 51.37882121689198 71.17678155809611 75.88810789056083 H 0.0 **** 0.06
19536 C 53.855286354200715 107.31481761462305 75.2388158815928 C 0.0 **** -0.24
19537 H 54.77671016021448 107.63882790944311 74.75480119703761 H 0.0 **** 0.06
19538 H 53.940284911980484 106.26263910802624 75.51366754355705 H 0.0 **** 0.06
19539 H 53.01866374797879 107.44430177056094 74.55116825854005 H 0.0 **** 0.06
19540 H 53.685198266660606 107.91276421203258 76.13408601376176 H 0.0 **** 0.06
19541 C 38.66430826504907 23.726907901078093 90.41529026828277 C 0.0 **** -0.24
19542 H 38.2606000309502 23.287979707516314 89.50319028426327 H 0.0 **** 0.06
19543 H 37.88060132779012 24.285405578798787 90.92808802552884 H 0.0 **** 0.06
19544 H 39.484437581960776 24.399043275577867 90.16298361868894 H 0.0 **** 0.06
19545 H 39.03117000374587 22.934186049685906 91.06778568785796 H 0.0 **** 0.06
19546 C 36.020716698127444 40.66185674359531 14.495081319775124 C 0.0 **** -0.24
19547 H 35.74115245528964 41.70604860347058 14.637038813556785 H 0.0 **** 0.06
19548 H 35.38763792742071 40.21826243914313 13.72566911013206 H 0.0 **** 0.06
19549 H 35.887072317230775 40.120300548104694 15.431637662585786 H 0.0 **** 0.06
19550 H 37.06386910295214 40.60312394956301 14.186257475882485 H 0.0 **** 0.06
19551 C 38.63055626059861 64.47912060730071 28.210821453309507 C 0.0 **** -0.24
19552 H 38.47856639526782 63.404561282320145 28.111730495425462 H 0.0 **** 0.06
19553 H 38.53120088552211 64.76462176043829 29.2578320940668 H 0.0 **** 0.06
19554 H 37.88357305621082 65.00792149701294 27.617408859104188 H 0.0 **** 0.06
19555 H 39.626972181240916 64.73980277671104 27.855911951098847 H 0.0 **** 0.06
19556 C 60.93038409880799 71.6688541569699 16.648387753127338 C 0.0 **** -0.24
19557 H 61.978392670107525 71.43964197585987 16.455326832168282 H 0.0 **** 0.06
19558 H 60.85776153261412 72.34170872850481 17.5029504514024 H 0.0 **** 0.06
19559 H 60.39081324453818 70.74691951900837 16.863765306855896 H 0.0 **** 0.06
19560 H 60.4965199903136 72.14730086232332 15.770426828497875 H 0.0 **** 0.06
19561 C 89.04805761270119 0.9584078437574703 79.98528260388768 C 0.0 **** -0.24
19562 H 89.05884557107349 1.6661320450643302 80.8149173700637 H 0.0 **** 0.06
19563 H 88.37765794332958 0.13207455425850867 80.22186513087641 H 0.0 **** 0.06
19564 H 90.05500564999511 0.5750307503249417 79.82191083391125 H 0.0 **** 0.06
19565 H 88.6998739752085 1.4620727987581574 79.0831182548182 H 0.0 **** 0.06
19566 C 4.044487043549225 69.22303551878191 26.00282037855436 C 0.0 **** -0.24
19567 H 3.744927099516701 70.12163500470575 26.5423373117992 H 0.0 **** 0.06
19568 H 4.431842537931516 69.50128081569365 25.0226137718875 H 0.0 **** 0.06
19569 H 3.182395138108035 68.56879807172875 25.881015176306853 H 0.0 **** 0.06
19570 H 4.819622053333234 68.70298567382893 26.56618492539912 H 0.0 **** 0.06
19571 C 12.746442371165301 112.26165145074962 96.31953240138178 C 0.0 **** -0.24
19572 H 12.72757738979638 111.66743279702364 97.2333491407274 H 0.0 **** 0.06
19573 H 11.776565652398801 112.74115365317154 96.17920916109384 H 0.0 **** 0.06
19574 H 12.957656855477865 111.61285938104243 95.46902488110815 H 0.0 **** 0.06
19575 H 13.521271933174376 113.02343582391948 96.39741277586467 H 0.0 **** 0.06
19576 C 75.04976658283198 103.28853103443856 115.61321998472388 C 0.0 **** -0.24
19577 H 74.44032303623413 102.39476446316425 115.47746794233304 H 0.0 **** 0.06
19578 H 75.30369765942612 103.70485192488934 114.63901591682827 H 0.0 **** 0.06
19579 H 75.96334863561168 103.02718679737578 116.14777752220796 H 0.0 **** 0.06
19580 H 74.48926886759853 104.02460512393515 116.18947248940817 H 0.0 **** 0.06
19581 C 84.45699140659312 82.47057286623513 15.56186502313139 C 0.0 **** -0.24
19582 H 83.40518125221885 82.44679606978414 15.845210606034044 H 0.0 **** 0.06
19583 H 84.93857344702761 81.54280349676648 15.87162536709559 H 0.0 **** 0.06
19584 H 84.94611392296898 83.31411627170192 16.050203489071436 H 0.0 **** 0.06
19585 H 84.53995193006725 82.5794993324919 14.479580222343287 H 0.0 **** 0.06
19586 C 117.3464516544617 53.662212083057426 54.27713204822243 C 0.0 **** -0.24
19587 H 117.86782744940774 54.10780558688643 55.12407383789744 H 0.0 **** 0.06
19588 H 117.99630985315108 53.67418152345064 53.402227624186224 H 0.0 **** 0.06
19589 H 116.44232824708556 54.23330051275477 54.066897513810886 H 0.0 **** 0.06
19590 H 117.07831053161783 52.63265658950391 54.51709580414388 H 0.0 **** 0.06
19591 C 112.22829025516985 123.02555618559822 69.72022404973097 C 0.0 **** -0.24
19592 H 112.34145786937161 124.08133316759896 69.47448282511323 H 0.0 **** 0.06
19593 H 111.2297785070978 122.85021821049298 70.12155387640854 H 0.0 **** 0.06
19594 H 112.97342913104548 122.74463126227093 70.46433488605385 H 0.0 **** 0.06
19595 H 112.36970237511505 122.4267400387559 68.82076225773687 H 0.0 **** 0.06
19596 C 75.19016808629222 62.549717357976604 107.32265723200685 C 0.0 **** -0.24
19597 H 74.19997659268255 62.962135314332855 107.12767526299956 H 0.0 **** 0.06
19598 H 75.94940898487893 63.276452393837516 107.0351174817516 H 0.0 **** 0.06
19599 H 75.32302402856499 61.63539648248785 106.74303975291699 H 0.0 **** 0.06
19600 H 75.28633469731696 62.323761365623966 108.38465562267227 H 0.0 **** 0.06
19601 C 60.929570188103355 120.75038858437529 29.026985728471324 C 0.0 **** -0.24
19602 H 61.58513684698909 120.20998939501536 29.709952628463107 H 0.0 **** 0.06
19603 H 60.209774202284905 121.3332240632867 29.60115836530408 H 0.0 **** 0.06
19604 H 60.39908533992636 120.03825944217834 28.39410290336074 H 0.0 **** 0.06
19605 H 61.52500330832743 121.41748590789479 28.40359317847126 H 0.0 **** 0.06
19606 C 31.487518576008384 65.0052126116487 112.45744606618146 C 0.0 **** -0.24
19607 H 31.703343827964886 65.99110368116405 112.04632085529757 H 0.0 **** 0.06
19608 H 31.834240815467744 64.23821806676241 111.76455156446428 H 0.0 **** 0.06
19609 H 30.411952053684097 64.90230931433848 112.6058419791423 H 0.0 **** 0.06
19610 H 31.99823991166769 64.88983737275458 113.41365211026472 H 0.0 **** 0.06
19611 C 61.514934801680795 44.64929746718357 13.760020221434683 C 0.0 **** -0.24
19612 H 61.089905395475796 44.18687706792973 12.869309229207712 H 0.0 **** 0.06
19613 H 62.57016341721146 44.38619044999486 13.837214814089005 H 0.0 **** 0.06
19614 H 60.985291839191405 44.28984516380115 14.642423244378364 H 0.0 **** 0.06
19615 H 61.41401039180329 45.732073250795594 13.691219558886438 H 0.0 **** 0.06
19616 C 21.73048957597669 33.27826357771267 97.4711818926288 C 0.0 **** -0.24
19617 H 21.976554723025615 33.473619791080615 98.51484687341906 H 0.0 **** 0.06
19618 H 20.748649824985478 33.69519921611583 97.24466889038081 H 0.0 **** 0.06
19619 H 21.71743330125939 32.202384287020095 97.29583648971004 H 0.0 **** 0.06
19620 H 22.47924878062426 33.74146548187125 96.82845538254765 H 0.0 **** 0.06
19621 C 118.47510189583858 92.64265525925812 9.66639471548109 C 0.0 **** -0.24
19622 H 118.65770089018784 93.55964889331324 10.225706733034656 H 0.0 **** 0.06
19623 H 119.18296298328166 92.57277334316008 8.84039113634958 H 0.0 **** 0.06
19624 H 117.45775753581462 92.653229739703 9.273385277179386 H 0.0 **** 0.06
19625 H 118.60063818413767 91.78394912314177 10.326473618883995 H 0.0 **** 0.06
19626 C 2.5335970025558083 59.19345643244449 45.44497303385874 C 0.0 **** -0.24
19627 H 2.2550520402220684 59.121765014426046 44.39326499932223 H 0.0 **** 0.06
19628 H 1.964155286481457 58.46527966289557 46.021851173488024 H 0.0 **** 0.06
19629 H 2.3166769683591326 60.19670221020607 45.80986238704326 H 0.0 **** 0.06
19630 H 3.598908183963033 58.989249105107575 45.55264459717594 H 0.0 **** 0.06
19631 C 23.982401187188003 71.86639760261016 0.7467230271102423 C 0.0 **** -0.24
19632 H 24.171044493678323 71.8202115653531 -0.32635400625442834 H 0.0 **** 0.06
19633 H 24.92336790602917 72.01800899358093 1.27520699624346 H 0.0 **** 0.06
19634 H 23.526995805170543 70.93083419641567 1.0751570218295807 H 0.0 **** 0.06
19635 H 23.306019930527356 72.6942044317062 0.9615299149210053 H 0.0 **** 0.06
19636 C 75.38336147424943 68.40289549437432 18.03889828546221 C 0.0 **** -0.24
19637 H 76.33992942575227 68.2548041665791 17.537634456635885 H 0.0 **** 0.06
19638 H 75.48237269553405 69.19398393379191 18.782771670359523 H 0.0 **** 0.06
19639 H 75.08284753587587 67.47708908244783 18.528905976266117 H 0.0 **** 0.06
19640 H 74.62931342395402 68.6866416484599 17.30523806095931 H 0.0 **** 0.06
19641 C 51.18103143285441 59.95465853455504 49.33845861766963 C 0.0 **** -0.24
19642 H 50.47170759034131 59.322550600516465 49.87184394262607 H 0.0 **** 0.06
19643 H 50.864412918480326 60.061776814208955 48.30144847092174 H 0.0 **** 0.06
19644 H 52.17025009747897 59.49768818952228 49.37128030511553 H 0.0 **** 0.06
19645 H 51.21860586592783 60.93594597692807 49.81094226431492 H 0.0 **** 0.06
19646 C 78.95937170040017 39.79904269864875 88.04714053338304 C 0.0 **** -0.24
19647 H 79.90923326067784 39.39078424160016 87.70131720096433 H 0.0 **** 0.06
19648 H 78.47998442598677 40.34218608825448 87.23264018762464 H 0.0 **** 0.06
19649 H 79.13794750710395 40.47692280728545 88.8813358961244 H 0.0 **** 0.06
19650 H 78.310842519987 38.98472201994488 88.37271314805795 H 0.0 **** 0.06
19651 C 112.88895722074005 113.21396032784105 94.41740949557523 C 0.0 **** -0.24
19652 H 112.55461986364122 112.39472425840157 95.05274517035083 H 0.0 **** 0.06
19653 H 113.97816183938016 113.21646431793724 94.37123853713067 H 0.0 **** 0.06
19654 H 112.54100469421377 114.16032906651222 94.83161833774008 H 0.0 **** 0.06
19655 H 112.48320935323102 113.08509393168443 93.41424859200471 H 0.0 **** 0.06
19656 C 86.31591034289735 79.31153101794885 84.69843754866112 C 0.0 **** -0.24
19657 H 85.44619094279805 78.84557487228177 84.23545727864969 H 0.0 **** 0.06
19658 H 87.05061800616353 78.54515272140878 84.94518976983 H 0.0 **** 0.06
19659 H 86.00917586909567 79.82923249426405 85.60716294133204 H 0.0 **** 0.06
19660 H 86.75731749538214 80.02748418263933 84.00390490720214 H 0.0 **** 0.06
19661 C 82.03116595743393 123.58708205129598 53.55383466846628 C 0.0 **** -0.24
19662 H 82.34017546590323 124.25109425183665 52.74620934812954 H 0.0 **** 0.06
19663 H 81.58727013493603 122.6849878054403 53.13271689350134 H 0.0 **** 0.06
19664 H 81.29756528509336 124.09541320011121 54.18033148056141 H 0.0 **** 0.06
19665 H 82.8998250914118 123.31893068204285 54.15482787626799 H 0.0 **** 0.06
19666 C 84.795877995414 83.5287210653982 11.252931668378494 C 0.0 **** -0.24
19667 H 84.74599924757216 82.67929366468246 10.572773723840271 H 0.0 **** 0.06
19668 H 85.78982155660816 83.97373966392473 11.205105323660803 H 0.0 **** 0.06
19669 H 84.59631980914948 83.19182461369073 12.270457122210303 H 0.0 **** 0.06
19670 H 84.05054402323445 84.27058552125725 10.963443860043697 H 0.0 **** 0.06
19671 C 37.55752087084781 19.135837658075587 16.966913993846276 C 0.0 **** -0.24
19672 H 37.082098291919394 19.99675871103136 17.438029771431758 H 0.0 **** 0.06
19673 H 36.88970744536948 18.27550739446582 17.02516217142133 H 0.0 **** 0.06
19674 H 38.489259773263385 18.908277238399307 17.48286793985531 H 0.0 **** 0.06
19675 H 37.76575185015099 19.363377234821783 15.921686610806347 H 0.0 **** 0.06
19676 C 52.57138070578765 26.317000017757223 22.776529452432186 C 0.0 **** -0.24
19677 H 53.56760325353241 25.886200599389213 22.873952105523045 H 0.0 **** 0.06
19678 H 51.844818216343356 25.520403562861773 22.622391063378103 H 0.0 **** 0.06
19679 H 52.552218251495674 26.996725964149114 21.924565748737535 H 0.0 **** 0.06
19680 H 52.32349103234958 26.86606640044566 23.68570798316867 H 0.0 **** 0.06
19681 C 69.25143349085334 46.27590058931562 16.05391018760392 C 0.0 **** -0.24
19682 H 69.99803518405182 47.07015541504572 16.047360297978486 H 0.0 **** 0.06
19683 H 68.80492778922645 46.190248423151 15.062231721254506 H 0.0 **** 0.06
19684 H 68.47638561112404 46.51095231719978 16.783263439333155 H 0.0 **** 0.06
19685 H 69.72845922974246 45.332199752250354 16.32039834362743 H 0.0 **** 0.06
19686 C 36.28562466611089 20.756533700086266 90.3738559351496 C 0.0 **** -0.24
19687 H 35.30619639530693 20.525003144405133 90.79404475363242 H 0.0 **** 0.06
19688 H 36.217086639211004 20.783882835702215 89.28679189847117 H 0.0 **** 0.06
19689 H 36.99953408543894 19.98944290998665 90.67463956609708 H 0.0 **** 0.06
19690 H 36.61815530489895 21.727434303961502 90.74269216039295 H 0.0 **** 0.06
19691 C 46.18099174192596 80.901602265017 100.75280463787021 C 0.0 **** -0.24
19692 H 46.264702304782 81.95306914304275 101.02698092227178 H 0.0 **** 0.06
19693 H 45.846286973371434 80.8205969394267 99.71814352602152 H 0.0 **** 0.06
19694 H 45.460541719562094 80.41178871811837 101.40782765825386 H 0.0 **** 0.06
19695 H 47.1538887234419 80.42010364334583 100.85867402371869 H 0.0 **** 0.06
19696 C 90.44334421958825 32.35266596799262 36.19672256437801 C 0.0 **** -0.24
19697 H 91.21994167139854 32.00936915880395 36.88007708177412 H 0.0 **** 0.06
19698 H 90.86500134351954 32.47095403858378 35.198066486045605 H 0.0 **** 0.06
19699 H 90.05157721976087 33.30891773326358 36.541230626608154 H 0.0 **** 0.06
19700 H 89.63684404825904 31.61965271433447 36.16582300091147 H 0.0 **** 0.06
19701 C 45.839260743500205 21.78459593082738 26.782363218458897 C 0.0 **** -0.24
19702 H 45.210716198416506 22.626846163923716 26.494481358447672 H 0.0 **** 0.06
19703 H 46.86363285418962 21.96854479925986 26.455217360815823 H 0.0 **** 0.06
19704 H 45.46526554449548 20.874960357192435 26.311944842764262 H 0.0 **** 0.06
19705 H 45.81842873999696 21.668531386783968 27.865872676347124 H 0.0 **** 0.06
19706 C 50.608788952784096 46.209113872934836 117.53863319998132 C 0.0 **** -0.24
19707 H 50.19750240159806 45.62056849522594 118.35918634166524 H 0.0 **** 0.06
19708 H 51.69000460525041 46.28854324760459 117.65494500180111 H 0.0 **** 0.06
19709 H 50.167125819207115 47.20591769408236 117.55069821754293 H 0.0 **** 0.06
19710 H 50.37938419910313 45.72119235028117 116.59185936285107 H 0.0 **** 0.06
19711 C 81.08621668606699 93.30234117929179 59.66493170019987 C 0.0 **** -0.24
19712 H 81.48910287861784 92.72079820415057 58.83569880600248 H 0.0 **** 0.06
19713 H 80.01673122085683 93.45283622113486 59.51528602270639 H 0.0 **** 0.06
19714 H 81.58760883606857 94.26892250104366 59.70804940968861 H 0.0 **** 0.06
19715 H 81.25087366265006 92.76562855127692 60.598874046118624 H 0.0 **** 0.06
19716 C 6.381958440397408 49.4898403666987 11.642301035353782 C 0.0 **** -0.24
19717 H 5.602027383070244 49.908088703643415 11.004588186173748 H 0.0 **** 0.06
19718 H 5.936332440900774 49.11867290419869 12.56537736336027 H 0.0 **** 0.06
19719 H 7.11304678788694 50.26432944579659 11.87670509702724 H 0.0 **** 0.06
19720 H 6.876298535067956 48.67056404314178 11.120603934704235 H 0.0 **** 0.06
19721 C 45.764995446276124 30.351673030007923 20.66614241124688 C 0.0 **** -0.24
19722 H 46.40112127970982 29.53171368437257 20.3322437398931 H 0.0 **** 0.06
19723 H 45.551005858287915 31.01190830566481 19.82432374599125 H 0.0 **** 0.06
19724 H 46.27654107175824 30.913736687224592 21.447440191205658 H 0.0 **** 0.06
19725 H 44.831513912698185 29.950039773727973 21.059882986934838 H 0.0 **** 0.06
19726 C 29.73239664809416 120.15920712980916 19.03822957626798 C 0.0 **** -0.24
19727 H 29.076057102657103 119.28907429427818 19.05407129261303 H 0.0 **** 0.06
19728 H 30.00866701363941 120.42539680981903 20.05871694604528 H 0.0 **** 0.06
19729 H 29.212823289085577 120.99739163719113 18.57262993377975 H 0.0 **** 0.06
19730 H 30.63151250684271 119.92661465241441 18.46743703046272 H 0.0 **** 0.06
19731 C 79.74071500216888 26.455691115587783 25.587832612623174 C 0.0 **** -0.24
19732 H 80.81840848433215 26.599268006336338 25.65823206259458 H 0.0 **** 0.06
19733 H 79.33677216835883 27.106390220531914 24.81228598850398 H 0.0 **** 0.06
19734 H 79.27828911376467 26.700497279329497 26.54478089904424 H 0.0 **** 0.06
19735 H 79.5282736859024 25.416055590652284 25.33723451717553 H 0.0 **** 0.06
19736 C 69.10549319238635 111.45427377913431 109.21121493394318 C 0.0 **** -0.24
19737 H 68.16238068527304 110.95135694542142 108.99863286456161 H 0.0 **** 0.06
19738 H 69.574520431839 110.99322018256566 110.08111596291491 H 0.0 **** 0.06
19739 H 68.91710275322481 112.50808925290669 109.41569153910352 H 0.0 **** 0.06
19740 H 69.76799885852955 111.36362149439033 108.35095156528641 H 0.0 **** 0.06
19741 C 90.37040316014472 58.59737829492158 83.46016196650635 C 0.0 **** -0.24
19742 H 91.08977751673973 57.82668617012891 83.18622254718377 H 0.0 **** 0.06
19743 H 89.73629856526054 58.823381645355965 82.60319374868607 H 0.0 **** 0.06
19744 H 90.90297182182869 59.498563543678316 83.76590129357766 H 0.0 **** 0.06
19745 H 89.75451305971453 58.242251439120906 84.28590342949337 H 0.0 **** 0.06
19746 C 96.25856205387319 55.85109349874193 82.88166769613895 C 0.0 **** -0.24
19747 H 95.38951706599264 56.45551849521115 82.62304073481766 H 0.0 **** 0.06
19748 H 96.57434479323948 56.08380054070176 83.89847514266495 H 0.0 **** 0.06
19749 H 97.07195651512697 56.06976390764572 82.18925997656146 H 0.0 **** 0.06
19750 H 95.99866481200789 54.79448128505993 82.81382385946836 H 0.0 **** 0.06
19751 C 13.313397609161655 12.0409078429605 27.976748025093947 C 0.0 **** -0.24
19752 H 12.98452312559209 13.039292987856957 27.688461049561667 H 0.0 **** 0.06
19753 H 14.19151884620527 12.119310159752136 28.617114197288522 H 0.0 **** 0.06
19754 H 13.564108478156015 11.469040428966025 27.083318437400692 H 0.0 **** 0.06
19755 H 12.511676460717183 11.5376702472924 28.517854176372815 H 0.0 **** 0.06
19756 C 0.8916885821489728 70.79986730534819 75.0336529381637 C 0.0 **** -0.24
19757 H 1.0032060238387999 70.50242836605327 73.99134223469025 H 0.0 **** 0.06
19758 H 0.9113658649277312 69.91330560239373 75.66814084514914 H 0.0 **** 0.06
19759 H -0.058103892884261654 71.31941462344275 75.16309243194496 H 0.0 **** 0.06
19760 H 1.7092068963370934 71.46406948894452 75.3111576893487 H 0.0 **** 0.06
19761 C 123.90472726794236 68.75057159416646 99.54073136153096 C 0.0 **** -0.24
19762 H 122.97539342877084 68.18200001432255 99.56409046447999 H 0.0 **** 0.06
19763 H 124.62614002985195 68.29531701892756 100.21996376398215 H 0.0 **** 0.06
19764 H 123.71072815747017 69.77712316733303 99.85101171733885 H 0.0 **** 0.06
19765 H 124.30740597139862 68.74669844235274 98.52753167654163 H 0.0 **** 0.06
19766 C 102.29785761102553 29.089431645740696 52.06432125403052 C 0.0 **** -0.24
19767 H 101.65045498212521 28.328144374669186 51.62894412839114 H 0.0 **** 0.06
19768 H 101.75964065926016 30.036673941590337 52.119822208825724 H 0.0 **** 0.06
19769 H 103.18468416993848 29.211198280781446 51.442175562462864 H 0.0 **** 0.06
19770 H 102.59638911435108 28.782070593722487 53.067238450876744 H 0.0 **** 0.06
19771 C 82.78621685207565 19.787613329830563 10.524276659516431 C 0.0 **** -0.24
19772 H 83.87352523425903 19.712743537875895 10.491038898074919 H 0.0 **** 0.06
19773 H 82.43500367090513 19.52856306985224 11.523327707169699 H 0.0 **** 0.06
19774 H 82.35349694906517 19.10045157422023 9.796906784004705 H 0.0 **** 0.06
19775 H 82.48574511049105 20.807891628213824 10.284871859512464 H 0.0 **** 0.06
19776 C 40.89401145422886 73.52702044516201 106.67102647314985 C 0.0 **** -0.24
19777 H 40.60101116982628 74.41706913347203 107.22813677570471 H 0.0 **** 0.06
19778 H 41.97844622714754 73.51067796859273 106.55711021024112 H 0.0 **** 0.06
19779 H 40.425463906625765 73.54362173823971 105.68708171244685 H 0.0 **** 0.06
19780 H 40.571474619377 72.6376832275852 107.21080968417473 H 0.0 **** 0.06
19781 C 26.755974397683687 29.085926245727364 112.23467629810952 C 0.0 **** -0.24
19782 H 26.086846678327504 28.359167849300434 112.69596695209248 H 0.0 **** 0.06
19783 H 27.649221524379378 28.577587573059873 111.87222761446637 H 0.0 **** 0.06
19784 H 27.038995640816395 29.836389857277766 112.97322357851596 H 0.0 **** 0.06
19785 H 26.24872088877551 29.569813923195056 111.40095199289962 H 0.0 **** 0.06
19786 C 55.54357655546866 82.00506936960026 118.55332290276678 C 0.0 **** -0.24
19787 H 55.60232236058346 81.8172830686109 119.6259071646658 H 0.0 **** 0.06
19788 H 54.688328927691074 82.64695018322602 118.34328196591433 H 0.0 **** 0.06
19789 H 55.42812102813437 81.05853421698693 118.02564315916008 H 0.0 **** 0.06
19790 H 56.4585437342931 82.49655874876052 118.22129428138231 H 0.0 **** 0.06
19791 C 10.58380546505262 93.05009722261369 31.80045186478381 C 0.0 **** -0.24
19792 H 11.514672484517547 92.85165610343077 32.33174502744859 H 0.0 **** 0.06
19793 H 10.611134705192029 94.05673951010667 31.38287655051883 H 0.0 **** 0.06
19794 H 9.746523103769164 92.965902500894 32.49287310596995 H 0.0 **** 0.06
19795 H 10.464462478750846 92.32498461860354 30.995832305695103 H 0.0 **** 0.06
19796 C 96.71889189554508 14.929280820777734 22.990261580807932 C 0.0 **** -0.24
19797 H 97.47002568146377 15.129602495206257 22.22659677347759 H 0.0 **** 0.06
19798 H 96.3666627360056 15.871853088532333 23.40894741814136 H 0.0 **** 0.06
19799 H 97.15925890435437 14.322495743692286 23.78155576325237 H 0.0 **** 0.06
19800 H 95.88083890097886 14.393115130520215 22.54517594015808 H 0.0 **** 0.06
19801 C 77.01278221257111 41.33117106538331 93.90488334779421 C 0.0 **** -0.24
19802 H 77.15227761281058 41.47567165449613 94.9772081277273 H 0.0 **** 0.06
19803 H 77.12536616993295 40.27417682693496 93.66330365364126 H 0.0 **** 0.06
19804 H 77.75851158908931 41.91033644414405 93.36136075678513 H 0.0 **** 0.06
19805 H 76.01495934854614 41.66593009310206 93.62111823426791 H 0.0 **** 0.06
19806 C 51.278312590678695 14.494246663729676 83.47324612550332 C 0.0 **** -0.24
19807 H 52.1796499391871 13.907157633233812 83.65012511181804 H 0.0 **** 0.06
19808 H 50.433610107319026 13.822408161617275 83.31857393395369 H 0.0 **** 0.06
19809 H 51.416780815829014 15.114083895031914 82.58795633614194 H 0.0 **** 0.06
19810 H 51.083270182113495 15.129874952101531 84.33643602031391 H 0.0 **** 0.06
19811 C 48.629609021134875 59.67709939876484 43.028525500832956 C 0.0 **** -0.24
19812 H 49.54252751205762 60.25415469915569 42.879529716830945 H 0.0 **** 0.06
19813 H 47.82998222750139 60.34093975376399 43.35810358498574 H 0.0 **** 0.06
19814 H 48.80236958137027 58.91245287064321 43.78474973473391 H 0.0 **** 0.06
19815 H 48.344050669654145 59.20203280658012 42.090183427107064 H 0.0 **** 0.06
19816 C 116.89266831628271 100.50596303285153 9.552232147320314 C 0.0 **** -0.24
19817 H 116.6722215353457 100.43412752053885 8.48749389466477 H 0.0 **** 0.06
19818 H 117.8098980389864 99.95785843609701 9.770763078753284 H 0.0 **** 0.06
19819 H 116.06874865695167 100.0770905243464 10.122290437442896 H 0.0 **** 0.06
19820 H 117.01985557464451 101.55247572915309 9.827539674101136 H 0.0 **** 0.06
19821 C 78.0467245736658 108.03972094569812 54.61309729502349 C 0.0 **** -0.24
19822 H 77.60362968067703 107.35850967815895 53.88748047640391 H 0.0 **** 0.06
19823 H 78.25715559827144 107.50014944868249 55.53705949412907 H 0.0 **** 0.06
19824 H 77.3514066823609 108.8545693434285 54.81863296328882 H 0.0 **** 0.06
19825 H 78.9744923584273 108.44614786539887 54.210524571018794 H 0.0 **** 0.06
19826 C 26.478499360505474 47.55675229864093 79.06485763283094 C 0.0 **** -0.24
19827 H 26.928031836397558 48.49539803566131 78.73987997967363 H 0.0 **** 0.06
19828 H 26.631949836240864 46.79622115366601 78.29918927024698 H 0.0 **** 0.06
19829 H 25.410534484424495 47.70195558887596 79.22479101666096 H 0.0 **** 0.06
19830 H 26.94461729731494 47.233939799953305 79.99624418654693 H 0.0 **** 0.06
19831 C 21.580247166075083 46.54782816648791 50.646925053228145 C 0.0 **** -0.24
19832 H 20.8328460628976 46.01140562433777 50.06227031887796 H 0.0 **** 0.06
19833 H 21.428038868162844 46.34262292578659 51.70604170942668 H 0.0 **** 0.06
19834 H 21.48290818158108 47.61860178749279 50.465184212716 H 0.0 **** 0.06
19835 H 22.575900647411913 46.2187283032575 50.35149812786268 H 0.0 **** 0.06
19836 C 47.87059599930197 9.726503496116266 44.927287845942004 C 0.0 **** -0.24
19837 H 48.28495096323783 10.011291576393205 43.960168711158786 H 0.0 **** 0.06
19838 H 47.505773955838094 8.700124420762592 44.877662992258166 H 0.0 **** 0.06
19839 H 47.04575294696846 10.393383356675997 45.17919044943571 H 0.0 **** 0.06
19840 H 48.644525538269164 9.801508839498439 45.69071232622616 H 0.0 **** 0.06
19841 C 65.90198180441627 34.37612800861629 122.6432093259468 C 0.0 **** -0.24
19842 H 66.56409396253355 35.16770089216331 122.29093156681907 H 0.0 **** 0.06
19843 H 65.31824938688186 33.991840163506225 121.80662816797496 H 0.0 **** 0.06
19844 H 65.23115065670777 34.77568474426309 123.40297351893082 H 0.0 **** 0.06
19845 H 66.49756292332489 33.56964259004741 123.07126553922333 H 0.0 **** 0.06
19846 C 23.90002881330534 3.5117029663534822 8.57231130362267 C 0.0 **** -0.24
19847 H 23.106650653566618 2.8966134418422484 8.996587938672945 H 0.0 **** 0.06
19848 H 23.82988889683554 3.4944261436708075 7.48495598843008 H 0.0 **** 0.06
19849 H 24.86829596217538 3.118281525598775 8.88088216283613 H 0.0 **** 0.06
19850 H 23.79391875858903 4.536672236020991 8.928393298553484 H 0.0 **** 0.06
19851 C 31.876701086954924 109.16206532510543 81.95181015491866 C 0.0 **** -0.24
19852 H 31.914408834701796 108.95195703810191 83.02023951022034 H 0.0 **** 0.06
19853 H 30.841507436428856 109.32367502549803 81.64954508644158 H 0.0 **** 0.06
19854 H 32.28876516502907 108.31644787303495 81.40050981511902 H 0.0 **** 0.06
19855 H 32.46212291165972 110.05618136378669 81.73694620789374 H 0.0 **** 0.06
19856 C 91.25694281685344 27.772466815867716 101.753651290743 C 0.0 **** -0.24
19857 H 91.47820551943826 28.839810228784813 101.76251530447132 H 0.0 **** 0.06
19858 H 90.22895917385004 27.61654529437473 101.42603134065098 H 0.0 **** 0.06
19859 H 91.38490362540158 27.36745901424777 102.75751603347658 H 0.0 **** 0.06
19860 H 91.93793486872366 27.26611277859871 101.06866575207818 H 0.0 **** 0.06
19861 C 80.23553434413216 117.74086177452611 2.600501236064492 C 0.0 **** -0.24
19862 H 79.21247324743194 117.62859046639764 2.241069919292988 H 0.0 **** 0.06
19863 H 80.59669553019572 118.74080488726608 2.3587201109647573 H 0.0 **** 0.06
19864 H 80.87159620197896 116.99789125419133 2.120785954750664 H 0.0 **** 0.06
19865 H 80.25856368011587 117.59711851179966 3.6809887465435818 H 0.0 **** 0.06
19866 C 99.74768378490704 107.38352264454409 29.804882406357706 C 0.0 **** -0.24
19867 H 99.36756357892048 106.5688272452976 29.188502049126555 H 0.0 **** 0.06
19868 H 100.05218112548712 108.21134503804336 29.164131139033486 H 0.0 **** 0.06
19869 H 100.60549825010433 107.0331777585875 30.379881163467985 H 0.0 **** 0.06
19870 H 98.96549642273024 107.71844940617291 30.486148655798615 H 0.0 **** 0.06
19871 C 105.94934324267336 100.89382250412382 39.71758331952165 C 0.0 **** -0.24
19872 H 105.27533215758663 100.65503593020355 38.89571796251039 H 0.0 **** 0.06
19873 H 106.1871133628998 101.95828415014086 39.69512025612218 H 0.0 **** 0.06
19874 H 106.86722176620106 100.3136916192351 39.61525074515251 H 0.0 **** 0.06
19875 H 105.46803469288128 100.64948608955785 40.66490245232097 H 0.0 **** 0.06
19876 C 16.68541145236692 36.53070536026101 120.60973768336157 C 0.0 **** -0.24
19877 H 16.888761012531166 37.10439584281892 121.51448402561533 H 0.0 **** 0.06
19878 H 15.990106772573046 35.72373812553144 120.84008301110615 H 0.0 **** 0.06
19879 H 17.616404553185184 36.11146523502674 120.22905509298823 H 0.0 **** 0.06
19880 H 16.24686593496885 37.18601195707603 119.85631624114274 H 0.0 **** 0.06
19881 C 124.10186705633565 123.82860406639296 96.70308405440277 C 0.0 **** -0.24
19882 H 124.053858691182 122.73972477843714 96.69602746955844 H 0.0 **** 0.06
19883 H 123.13860957209371 124.23785999626327 96.39732867893842 H 0.0 **** 0.06
19884 H 124.8750341473196 124.16227794825983 96.01112662230514 H 0.0 **** 0.06
19885 H 124.34064271417297 124.17459372142531 97.70909453507258 H 0.0 **** 0.06
19886 C 74.40645553631185 80.43460013900122 106.4510603666642 C 0.0 **** -0.24
19887 H 74.57590907768343 79.35763105253396 106.45015667309772 H 0.0 **** 0.06
19888 H 75.1811805575071 80.9230629675495 107.042775634051 H 0.0 **** 0.06
19889 H 73.42920771210493 80.64706767168425 106.88494740426222 H 0.0 **** 0.06
19890 H 74.43951811600806 80.80857896388379 105.42768730706584 H 0.0 **** 0.06
19891 C 29.729659979617878 121.35869656375897 65.49191155587908 C 0.0 **** -0.24
19892 H 29.098689050755596 121.81938879066931 64.73245911240457 H 0.0 **** 0.06
19893 H 29.30578777309151 120.39660419776257 65.78101427125091 H 0.0 **** 0.06
19894 H 29.78286873247589 122.01002736178651 66.36444163654386 H 0.0 **** 0.06
19895 H 30.731379351098866 121.20788754301836 65.08926076623112 H 0.0 **** 0.06
19896 C 54.0432702642355 117.43696447773843 107.82297721587744 C 0.0 **** -0.24
19897 H 53.68805263960462 116.580335299626 108.3964888902646 H 0.0 **** 0.06
19898 H 55.12025451259922 117.54070056200983 107.95644436672788 H 0.0 **** 0.06
19899 H 53.544057205355784 118.34073417649024 108.17241728450219 H 0.0 **** 0.06
19900 H 53.81996884013972 117.28404070921954 106.76705841783902 H 0.0 **** 0.06
19901 C 79.33112166033729 34.30764609088949 11.410529173776183 C 0.0 **** -0.24
19902 H 79.47550792615898 35.3823661362947 11.304916298043736 H 0.0 **** 0.06
19903 H 79.47771702101234 34.02189832442771 12.45234093379338 H 0.0 **** 0.06
19904 H 80.05014963363544 33.78036272084279 10.783844476232844 H 0.0 **** 0.06
19905 H 78.31872715708897 34.04539854904401 11.101037043523434 H 0.0 **** 0.06
19906 C 34.98126954555306 40.766900266446314 36.46304576179352 C 0.0 **** -0.24
19907 H 35.476005490155785 40.05685192074459 37.12621499537772 H 0.0 **** 0.06
19908 H 34.01548168957487 40.364598564611136 36.156647516258715 H 0.0 **** 0.06
19909 H 35.601677212631046 40.93467061703159 35.58295195022066 H 0.0 **** 0.06
19910 H 34.83169582575903 41.71069161535455 36.988449754972464 H 0.0 **** 0.06
19911 C 114.43632309022158 20.642408918170986 70.55369618911341 C 0.0 **** -0.24
19912 H 113.36224080907465 20.82687147765239 70.52522611170389 H 0.0 **** 0.06
19913 H 114.95852752050783 21.57552962104188 70.76705981912464 H 0.0 **** 0.06
19914 H 114.76314252197591 20.25447654044615 69.5893232351554 H 0.0 **** 0.06
19915 H 114.65933831458266 19.914049886059672 71.33277961818453 H 0.0 **** 0.06
19916 C 104.3553782236886 74.9848712478188 43.62512812728278 C 0.0 **** -0.24
19917 H 104.74382569721121 74.01338412579075 43.31961211358808 H 0.0 **** 0.06
19918 H 104.65834993180869 75.19005460163496 44.651266799903 H 0.0 **** 0.06
19919 H 103.26688182993553 74.97648644434828 43.561135545662495 H 0.0 **** 0.06
19920 H 104.75131210130928 75.75787169219517 42.96588202201448 H 0.0 **** 0.06
19921 C 100.98229958871875 1.122221765687513 104.86604216284186 C 0.0 **** -0.24
19922 H 101.77001896489492 0.7608746777561066 104.2059087624377 H 0.0 **** 0.06
19923 H 101.26155061621895 0.9319999422281313 105.90260198090832 H 0.0 **** 0.06
19924 H 100.05179234119882 0.6025160756091168 104.6387407366826 H 0.0 **** 0.06
19925 H 100.84583643256244 2.1934963671565697 104.71691717133878 H 0.0 **** 0.06
19926 C 11.186129411626766 116.18274142846069 97.142538263977 C 0.0 **** -0.24
19927 H 12.208355245107825 115.8241585495634 97.26147668670367 H 0.0 **** 0.06
19928 H 10.572689164835822 115.80785289744765 97.96089165762473 H 0.0 **** 0.06
19929 H 10.784237950306377 115.82627851151325 96.19352709000069 H 0.0 **** 0.06
19930 H 11.180655127534777 117.27245374337252 97.15227391716937 H 0.0 **** 0.06
19931 C 89.39624145689146 7.602419340210702 41.69394021417449 C 0.0 **** -0.24
19932 H 89.19622193941106 8.170140416835835 40.7856348483281 H 0.0 **** 0.06
19933 H 90.42049872232224 7.78589067190623 42.01929703301849 H 0.0 **** 0.06
19934 H 89.26290376715534 6.53867580471838 41.49436938753189 H 0.0 **** 0.06
19935 H 88.70533355741381 7.914249217554854 42.47715225716681 H 0.0 **** 0.06
19936 C 78.16810834523463 3.591041498551988 84.67807979632691 C 0.0 **** -0.24
19937 H 78.18125564864359 2.578957914902105 85.08164346518191 H 0.0 **** 0.06
19938 H 78.18262678841826 3.547120873286133 83.58793850655157 H 0.0 **** 0.06
19939 H 79.04462880270347 4.134648281162924 85.03211413938406 H 0.0 **** 0.06
19940 H 77.26434139940712 4.103000951256718 85.00900055684602 H 0.0 **** 0.06
19941 C 95.7497093805174 57.34594150946978 116.1963420320958 C 0.0 **** -0.24
19942 H 94.74308099811935 57.318746187134536 115.77897716977697 H 0.0 **** 0.06
19943 H 95.76843010941462 56.791314931007875 117.13544995742208 H 0.0 **** 0.06
19944 H 96.03890703211084 58.380804489734246 116.37917537756579 H 0.0 **** 0.06
19945 H 96.44702287209341 56.89268633083857 115.49170215953274 H 0.0 **** 0.06
19946 C 11.297754378991723 5.290217281706859 5.756056833092515 C 0.0 **** -0.24
19947 H 11.994972221061278 4.506764504602671 6.0527616112054545 H 0.0 **** 0.06
19948 H 10.583967657943408 5.463863418086106 6.561990019301561 H 0.0 **** 0.06
19949 H 10.765023212457578 4.98116631454576 4.857293428901642 H 0.0 **** 0.06
19950 H 11.848691223476145 6.209092850044641 5.554696442637976 H 0.0 **** 0.06
19951 C 67.39442811266036 21.15281347256817 101.04590460383343 C 0.0 **** -0.24
19952 H 67.1579815179195 20.748836741370354 100.06156293966757 H 0.0 **** 0.06
19953 H 67.45471287366485 22.239523482994713 100.9872547693621 H 0.0 **** 0.06
19954 H 68.35068312736695 20.752778503077508 101.38245928977477 H 0.0 **** 0.06
19955 H 66.6138063194399 20.869546360058223 101.75171126883299 H 0.0 **** 0.06
19956 C 64.19723178612583 121.94511196522153 30.978835636046867 C 0.0 **** -0.24
19957 H 64.4146164371515 121.47114746708101 30.0209127003167 H 0.0 **** 0.06
19958 H 64.28990757369633 121.20836470820505 31.777414022253907 H 0.0 **** 0.06
19959 H 63.18141322284822 122.34172620474727 30.965737311791116 H 0.0 **** 0.06
19960 H 64.90204444885308 122.75796804729568 31.149676881736667 H 0.0 **** 0.06
19961 C 51.034242783770026 101.2259076016012 22.371085252059267 C 0.0 **** -0.24
19962 H 50.101215148185474 101.41547812786739 22.901345687891734 H 0.0 **** 0.06
19963 H 51.870947667923645 101.5911349509967 22.965714187363126 H 0.0 **** 0.06
19964 H 51.01701536793513 101.74157654976841 21.411346528970746 H 0.0 **** 0.06
19965 H 51.145701322902994 100.15416818390294 22.20601153476209 H 0.0 **** 0.06
19966 C 11.361357024064205 104.57085858052423 88.19742640233586 C 0.0 **** -0.24
19967 H 10.579165064214067 105.3274261629098 88.27441372507036 H 0.0 **** 0.06
19968 H 11.17614773659966 103.94542082610984 87.32434116966873 H 0.0 **** 0.06
19969 H 11.35896291034112 103.95353453490836 89.09594407911516 H 0.0 **** 0.06
19970 H 12.329819840103937 105.06045691143498 88.09580481305767 H 0.0 **** 0.06
19971 C 62.94703786764151 55.353238082653775 104.29581115708433 C 0.0 **** -0.24
19972 H 62.455036010962516 54.42964052132008 103.99104334658861 H 0.0 **** 0.06
19973 H 62.19408717706921 56.10578785705529 104.52884500262405 H 0.0 **** 0.06
19974 H 63.581647380073804 55.71149078445289 103.48473747423765 H 0.0 **** 0.06
19975 H 63.557638667387096 55.16465467202147 105.1784360101525 H 0.0 **** 0.06
19976 C 0.7222670240278717 19.720967449848217 82.43796763741926 C 0.0 **** -0.24
19977 H 1.2052561053732234 19.41119975368133 83.3643337586181 H 0.0 **** 0.06
19978 H 0.8371912285523422 18.936677055386667 81.68900116685573 H 0.0 **** 0.06
19979 H 1.184823167415118 20.639049538665347 82.07615859943309 H 0.0 **** 0.06
19980 H -0.3373592989326255 19.896272993725347 82.62146063774568 H 0.0 **** 0.06
19981 C 4.73834643416501 56.09067024834741 86.8771986726098 C 0.0 **** -0.24
19982 H 5.325536419739251 56.72568457247547 86.2136796854951 H 0.0 **** 0.06
19983 H 5.132231301255558 56.163589311496025 87.8908412228829 H 0.0 **** 0.06
19984 H 4.79773129359387 55.05636530692067 86.53702300687122 H 0.0 **** 0.06
19985 H 3.6983795780219566 56.41712333376353 86.86592769056989 H 0.0 **** 0.06
19986 C 103.77915437645282 20.11245197122301 18.92786285751515 C 0.0 **** -0.24
19987 H 104.41302461049844 19.728279799914304 19.726830914612094 H 0.0 **** 0.06
19988 H 103.21265027368509 20.968946618614353 19.294438592817016 H 0.0 **** 0.06
19989 H 103.09144002831522 19.33234830981155 18.603123116970664 H 0.0 **** 0.06
19990 H 104.40173679663343 20.421012372831825 18.087692429564697 H 0.0 **** 0.06
19991 C 110.75999863644789 19.780140040910965 37.08652168552638 C 0.0 **** -0.24
19992 H 110.97075841230337 20.63648542937267 36.44569283471662 H 0.0 **** 0.06
19993 H 110.71307683987193 20.108347028014634 38.125504984564756 H 0.0 **** 0.06
19994 H 111.55052160514128 19.03891116605479 36.9747816746753 H 0.0 **** 0.06
19995 H 109.80432238296734 19.339600653416824 36.801339836842544 H 0.0 **** 0.06
19996 C 34.50690092402914 18.997145640070748 71.48870757836221 C 0.0 **** -0.24
19997 H 33.79021362625299 18.254799482319527 71.83975913935447 H 0.0 **** 0.06
19998 H 34.98577386532581 18.636389015204124 70.57794300033848 H 0.0 **** 0.06
19999 H 35.26298356298631 19.162340631010398 72.25648513912529 H 0.0 **** 0.06
20000 H 33.988796112319505 19.932638759722636 71.28102113257589 H 0.0 **** 0.06
20001 C 27.835846826497473 70.44765906185745 84.21762473229131 C 0.0 **** -0.24
20002 H 28.178946875199998 70.43003264808567 83.18292844777625 H 0.0 **** 0.06
20003 H 27.821877447384495 69.4323662595259 84.61241331255115 H 0.0 **** 0.06
20004 H 26.830492156715863 70.86746578167242 84.25888056654827 H 0.0 **** 0.06
20005 H 28.510750127718893 71.06173646555948 84.81376160914323 H 0.0 **** 0.06
20006 C 27.104629048786776 124.18699905739541 73.10542680766069 C 0.0 **** -0.24
20007 H 27.945438936290707 123.60831094084529 73.48903148919858 H 0.0 **** 0.06
20008 H 27.162044512748245 125.20742434714438 73.48535501521171 H 0.0 **** 0.06
20009 H 26.17012947111178 123.72867602135804 73.43165116380321 H 0.0 **** 0.06
20010 H 27.14107425793034 124.20218874666077 72.01581643460885 H 0.0 **** 0.06
20011 C 43.32002889594628 29.184659522944045 106.86804572337365 C 0.0 **** -0.24
20012 H 43.86005992436105 28.63112168580038 107.63573512656848 H 0.0 **** 0.06
20013 H 42.822978359529486 28.484272806766768 106.19737077844559 H 0.0 **** 0.06
20014 H 44.02090201588578 29.797297292023472 106.30129664136706 H 0.0 **** 0.06
20015 H 42.57599438015728 29.826214113049843 107.33915717719134 H 0.0 **** 0.06
20016 C 92.64633237688224 15.839740219564902 122.25688056964495 C 0.0 **** -0.24
20017 H 92.96199454819225 14.834229363979972 121.97528845129064 H 0.0 **** 0.06
20018 H 93.47974173139863 16.53096990113667 122.12880200711223 H 0.0 **** 0.06
20019 H 92.32784275537705 15.841697317811054 123.2990447639884 H 0.0 **** 0.06
20020 H 91.81519937562388 16.149421518959826 121.62274007062364 H 0.0 **** 0.06
20021 C 40.79523967138289 54.21270672558802 8.322737808215656 C 0.0 **** -0.24
20022 H 39.832284844222954 54.14902142331155 7.816500843957883 H 0.0 **** 0.06
20023 H 40.77364643345197 55.03072745036863 9.04284650637684 H 0.0 **** 0.06
20024 H 41.57979201949922 54.39420470099154 7.588609231020701 H 0.0 **** 0.06
20025 H 40.994842102562416 53.274918199926475 8.842842940450225 H 0.0 **** 0.06
20026 C 107.7130808399466 71.92016876117768 84.14402053589401 C 0.0 **** -0.24
20027 H 108.09970761611777 71.0170258422983 83.67143897534048 H 0.0 **** 0.06
20028 H 106.89845679809264 72.32453027563665 83.54332749024223 H 0.0 **** 0.06
20029 H 108.5112347507357 72.65874160823367 84.22064434341945 H 0.0 **** 0.06
20030 H 107.34529455815755 71.67867403137078 85.141364640545 H 0.0 **** 0.06
20031 C 35.562029240455274 99.93528920416503 22.983596728513135 C 0.0 **** -0.24
20032 H 35.86812257336146 99.21494240307806 23.742248207814043 H 0.0 **** 0.06
20033 H 34.89282553177321 100.6707619839413 23.430456786626678 H 0.0 **** 0.06
20034 H 35.04587423144022 99.41584809471448 22.176345444129566 H 0.0 **** 0.06
20035 H 36.44299922861717 100.43969917992766 22.587093078315775 H 0.0 **** 0.06
20036 C 69.79078246813482 121.19074307766031 31.933887035951386 C 0.0 **** -0.24
20037 H 70.13590164239909 121.54225053895053 32.9052406609876 H 0.0 **** 0.06
20038 H 69.84015250615612 120.10192001273786 31.902859880305982 H 0.0 **** 0.06
20039 H 70.425465194714 121.60571673806098 31.14988544818837 H 0.0 **** 0.06
20040 H 68.76180662580732 121.51297204255354 31.776166128073385 H 0.0 **** 0.06
20041 C 44.331371007668025 50.38547863212307 60.75546269871657 C 0.0 **** -0.24
20042 H 44.36130033027948 49.410406807977026 61.242896737486404 H 0.0 **** 0.06
20043 H 45.06781036472674 50.41212101236476 59.95253745644837 H 0.0 **** 0.06
20044 H 44.560200721031975 51.162723950687514 61.48437378182534 H 0.0 **** 0.06
20045 H 43.33708561100798 50.55538103369632 60.34392003607542 H 0.0 **** 0.06
20046 C 111.83567812715182 69.82891903898985 112.9120771228695 C 0.0 **** -0.24
20047 H 111.34047568052972 68.93408494974352 113.29214069642438 H 0.0 **** 0.06
20048 H 111.5230671417002 70.00662947311434 111.88320829333253 H 0.0 **** 0.06
20049 H 112.91546667752135 69.68703107127413 112.94557562520745 H 0.0 **** 0.06
20050 H 111.56190075525984 70.68446446615474 113.52870231541661 H 0.0 **** 0.06
20051 C 60.986320026339484 76.06987447290514 32.432538984664625 C 0.0 **** -0.24
20052 H 60.35551970353475 75.22271502330888 32.1638411807237 H 0.0 **** 0.06
20053 H 61.47980680247116 76.45351416353616 31.53881242179029 H 0.0 **** 0.06
20054 H 61.738432430727244 75.74841014277276 33.152965468507205 H 0.0 **** 0.06
20055 H 60.371970862184185 76.85409699088308 32.87343328602264 H 0.0 **** 0.06
20056 C 12.95616290730311 64.55990525176566 66.9522902563756 C 0.0 **** -0.24
20057 H 12.541121627318034 64.45209805963223 65.9496282436141 H 0.0 **** 0.06
20058 H 12.864755909569226 63.61360263617961 67.486263920688 H 0.0 **** 0.06
20059 H 12.409598232560427 65.33415261434102 67.49001950451246 H 0.0 **** 0.06
20060 H 14.007706563687691 64.83809136354986 66.88307231538347 H 0.0 **** 0.06
20061 C 13.264184766370455 43.92221297659091 37.73020703178673 C 0.0 **** -0.24
20062 H 13.037671775690928 44.22240244855769 38.75318838199058 H 0.0 **** 0.06
20063 H 14.316627507652388 44.112304150730864 37.52031107156711 H 0.0 **** 0.06
20064 H 12.646865836243414 44.49651974008643 37.03846440800328 H 0.0 **** 0.06
20065 H 13.0547329709261 42.85958448882104 37.60818924375229 H 0.0 **** 0.06
20066 C 122.42791505706874 84.46010720839898 56.718445781922384 C 0.0 **** -0.24
20067 H 122.64308234171375 84.26064927707654 55.66908157709392 H 0.0 **** 0.06
20068 H 122.11740076923806 85.49874611466588 56.83443214094058 H 0.0 **** 0.06
20069 H 123.32311420216823 84.27899504185665 57.31408462154039 H 0.0 **** 0.06
20070 H 121.62740377230848 83.80159143687371 57.057353489069754 H 0.0 **** 0.06
20071 C 49.22164493287619 102.04131008178466 104.89617182394593 C 0.0 **** -0.24
20072 H 48.58562417392386 102.76550207076619 104.38690639568497 H 0.0 **** 0.06
20073 H 49.254018735570554 102.2726274700271 105.96119010938682 H 0.0 **** 0.06
20074 H 50.22878658588965 102.08895338987108 104.48278643441736 H 0.0 **** 0.06
20075 H 48.81718117766758 101.03910942387738 104.75341106659747 H 0.0 **** 0.06
20076 C 92.51313532239831 68.6890965217263 65.18515353844612 C 0.0 **** -0.24
20077 H 92.69051285791949 68.26116366849953 66.17171290241072 H 0.0 **** 0.06
20078 H 91.45552815351454 68.93276611828117 65.08024426998276 H 0.0 **** 0.06
20079 H 92.79838970621807 67.96832331966962 64.42007999039822 H 0.0 **** 0.06
20080 H 93.10814731471044 69.59558924820504 65.07027351754039 H 0.0 **** 0.06
20081 C 66.60574762942862 69.08467441504186 7.151414847246059 C 0.0 **** -0.24
20082 H 66.71333498768941 68.73230124488381 8.17705600954423 H 0.0 **** 0.06
20083 H 67.2320981228053 68.48246989697375 6.492929836117497 H 0.0 **** 0.06
20084 H 66.9136464450489 70.12853131834831 7.090597138339376 H 0.0 **** 0.06
20085 H 65.5634401910117 68.99417817907346 6.843937372260115 H 0.0 **** 0.06
20086 C 48.342785376603274 102.80301467167101 50.70183568554543 C 0.0 **** -0.24
20087 H 49.31467890344322 103.29562135324524 50.68822317566327 H 0.0 **** 0.06
20088 H 48.07769815718774 102.55029982404216 51.72851367030371 H 0.0 **** 0.06
20089 H 48.388473560844716 101.89269076587121 50.10368293904051 H 0.0 **** 0.06
20090 H 47.58939169631492 103.47359343339436 50.28651065203627 H 0.0 **** 0.06
20091 C 38.349234750720086 5.441891810512317 6.481747656196262 C 0.0 **** -0.24
20092 H 37.43088595938937 5.507829121737075 7.064607364762878 H 0.0 **** 0.06
20093 H 38.41854686167274 4.454589101402007 6.025048738756027 H 0.0 **** 0.06
20094 H 39.206354667637655 5.602094176747215 7.135188789095309 H 0.0 **** 0.06
20095 H 38.33899185354353 6.203293496872874 5.701617359213941 H 0.0 **** 0.06
20096 C 80.32113493373129 3.5748203311566016 80.13127285276511 C 0.0 **** -0.24
20097 H 79.5618024995199 4.272383294793201 79.77772387855407 H 0.0 **** 0.06
20098 H 80.12866553428577 3.327330641148592 81.17515602847502 H 0.0 **** 0.06
20099 H 81.30559872252013 4.03277810998523 80.04008414420824 H 0.0 **** 0.06
20100 H 80.28603283702535 2.6659885689615237 79.52959649630964 H 0.0 **** 0.06
20101 C 116.21272370604862 85.30259764460794 84.67974101472325 C 0.0 **** -0.24
20102 H 116.16792465025428 85.57189673535288 85.73537342875358 H 0.0 **** 0.06
20103 H 115.9597815565819 84.24826679813563 84.56305981857918 H 0.0 **** 0.06
20104 H 117.21978137984587 85.47947840004375 84.30258623831946 H 0.0 **** 0.06
20105 H 115.50222219944234 85.91135357591958 84.12000128541698 H 0.0 **** 0.06
20106 C 27.270365532012647 70.92387237112058 72.29717531556128 C 0.0 **** -0.24
20107 H 27.95442925592613 70.91448529575601 73.145563431315 H 0.0 **** 0.06
20108 H 27.54106920566545 70.12672003284433 71.60431355837511 H 0.0 **** 0.06
20109 H 27.33614793728225 71.88497514687957 71.78842511093399 H 0.0 **** 0.06
20110 H 26.251063505055356 70.76878602569448 72.64998727442372 H 0.0 **** 0.06
20111 C 49.25234422250219 99.46322328238243 77.89984204586291 C 0.0 **** -0.24
20112 H 49.166481210487916 100.44557483734243 78.364826668467 H 0.0 **** 0.06
20113 H 49.74896070283535 99.56183470202755 76.93367401739941 H 0.0 **** 0.06
20114 H 48.256740864280545 99.04273835949591 77.75508315213783 H 0.0 **** 0.06
20115 H 49.835586980212895 98.80570424766933 78.5441527526024 H 0.0 **** 0.06
20116 C 119.53374027776765 53.56923522256261 82.38349167505098 C 0.0 **** -0.24
20117 H 118.45894228851964 53.72006708898792 82.28959457532602 H 0.0 **** 0.06
20118 H 119.96130221069413 54.36842063679204 82.98859179085488 H 0.0 **** 0.06
20119 H 119.98973881894271 53.577963679692175 81.3935190243695 H 0.0 **** 0.06
20120 H 119.72508848663972 52.60828254224144 82.86260397517037 H 0.0 **** 0.06
20121 C 80.81940090470299 93.9009388479067 96.74554299491541 C 0.0 **** -0.24
20122 H 80.43636864863898 94.63696302576113 97.45285017081247 H 0.0 **** 0.06
20123 H 80.64786312679553 92.89778535247382 97.13713029677999 H 0.0 **** 0.06
20124 H 81.88860177753212 94.0569247580973 96.60110750235698 H 0.0 **** 0.06
20125 H 80.30317654445292 94.01157821552704 95.79153875618604 H 0.0 **** 0.06
20126 C 17.879234916175676 86.99320371978305 68.58601915364693 C 0.0 **** -0.24
20127 H 16.849914075184017 87.1024777799312 68.92899225051424 H 0.0 **** 0.06
20128 H 18.320355282191656 86.10512291365214 69.03975263008319 H 0.0 **** 0.06
20129 H 18.4532196703733 87.87333053463905 68.87462261812523 H 0.0 **** 0.06
20130 H 17.890562996264066 86.89081710996848 67.50143337956493 H 0.0 **** 0.06
20131 C 45.25706443977731 54.290018821452904 86.9228837104121 C 0.0 **** -0.24
20132 H 45.59529691518455 53.76443008234901 87.8165928602177 H 0.0 **** 0.06
20133 H 44.914158847295994 53.56697970995104 86.18322171259123 H 0.0 **** 0.06
20134 H 46.08153220841217 54.871033665569186 86.5096182302797 H 0.0 **** 0.06
20135 H 44.43717326362531 54.95927111819064 87.18480462005206 H 0.0 **** 0.06
20136 C 62.824675546396946 88.57729315442606 106.24516346887879 C 0.0 **** -0.24
20137 H 63.740910330142185 88.13298804080318 106.63512441597551 H 0.0 **** 0.06
20138 H 62.46201708058183 87.9846022906051 105.40525746707607 H 0.0 **** 0.06
20139 H 63.0291042074649 89.59488020779077 105.91159752048789 H 0.0 **** 0.06
20140 H 62.068029053379234 88.59739404876586 107.0299690404343 H 0.0 **** 0.06
20141 C 115.09423723203474 22.180456057815817 64.05177023128186 C 0.0 **** -0.24
20142 H 115.55937268104361 23.097144851334946 63.69119249901496 H 0.0 **** 0.06
20143 H 114.8533606963685 22.287135305886693 65.11008483996017 H 0.0 **** 0.06
20144 H 115.78383374607222 21.346938647250226 63.918300828373845 H 0.0 **** 0.06
20145 H 114.18132137358754 21.989693096246043 63.48863634679867 H 0.0 **** 0.06
20146 C 84.00368428131713 94.29438701644307 52.31290748759605 C 0.0 **** -0.24
20147 H 83.82885046007209 94.74775777245637 53.28848156803778 H 0.0 **** 0.06
20148 H 85.0396248526506 93.95927407100159 52.24769828138804 H 0.0 **** 0.06
20149 H 83.80804789098244 95.02789251999863 51.530846891185206 H 0.0 **** 0.06
20150 H 83.33729276324377 93.44087194800841 52.18489137412266 H 0.0 **** 0.06
20151 C 65.19348387708487 108.69126901777253 49.703262604169936 C 0.0 **** -0.24
20152 H 65.69519733320848 109.12918491953388 50.56608296182844 H 0.0 **** 0.06
20153 H 64.1552450989781 109.02389136376337 49.68045087432745 H 0.0 **** 0.06
20154 H 65.22585516730034 107.60439342700084 49.77673530411448 H 0.0 **** 0.06
20155 H 65.69700129941305 109.00952695569993 48.79073328047423 H 0.0 **** 0.06
20156 C 112.09662177158043 5.237851365609629 12.560753430954318 C 0.0 **** -0.24
20157 H 112.12807966162022 4.17307512618288 12.790713519418041 H 0.0 **** 0.06
20158 H 111.10750421675829 5.498858195527987 12.185698030797205 H 0.0 **** 0.06
20159 H 112.84637828158034 5.468462902012931 11.803633740364283 H 0.0 **** 0.06
20160 H 112.30583764797312 5.81040475261122 13.465399850009042 H 0.0 **** 0.06
20161 C 73.86258415847183 47.83939186657129 58.60381185108024 C 0.0 **** -0.24
20162 H 74.21193662374549 47.51450104325983 59.58448334560242 H 0.0 **** 0.06
20163 H 73.4844561766929 46.9794046452778 58.05057235130769 H 0.0 **** 0.06
20164 H 74.68912349312478 48.29041033317313 58.055442691886995 H 0.0 **** 0.06
20165 H 73.06440918596212 48.57192981590014 58.72759239132995 H 0.0 **** 0.06
20166 C 7.913416463237354 94.55105479269164 34.269150559834145 C 0.0 **** -0.24
20167 H 8.239428734641706 95.37246608930198 33.62997666718337 H 0.0 **** 0.06
20168 H 8.782058275487259 93.98362535749342 34.60257809763158 H 0.0 **** 0.06
20169 H 7.244902202710136 93.89788651060894 33.70699607585715 H 0.0 **** 0.06
20170 H 7.385786700618269 94.95175723803905 35.134709970526444 H 0.0 **** 0.06
20171 C 43.412956295331945 60.64390164565677 92.18686974704256 C 0.0 **** -0.24
20172 H 44.396438536468715 60.19191310667165 92.05172967247864 H 0.0 **** 0.06
20173 H 43.08583415881364 60.499285595341505 93.21681734070417 H 0.0 **** 0.06
20174 H 42.70098161302515 60.173555152603356 91.50853653669382 H 0.0 **** 0.06
20175 H 43.47100960632348 61.71086459164688 91.97016574094324 H 0.0 **** 0.06
20176 C 123.60350677176517 112.54774214808546 61.00353514300315 C 0.0 **** -0.24
20177 H 123.35499815001046 111.96917627384082 60.11475417376528 H 0.0 **** 0.06
20178 H 122.68856951896036 112.94076327779223 61.448643003627865 H 0.0 **** 0.06
20179 H 124.25714512551562 113.37466325480356 60.727290590781195 H 0.0 **** 0.06
20180 H 124.11214704818548 111.90714845305764 61.72329443745099 H 0.0 **** 0.06
20181 C 56.79074892360302 122.47921390263832 67.59898978594526 C 0.0 **** -0.24
20182 H 56.58560334029626 122.00536478029271 68.55883091644209 H 0.0 **** 0.06
20183 H 56.27712642044017 123.43944526605712 67.5508611710597 H 0.0 **** 0.06
20184 H 56.43578843988982 121.83600766876734 66.7940665122627 H 0.0 **** 0.06
20185 H 57.86403908151712 122.63440625482181 67.49366540295401 H 0.0 **** 0.06
20186 C 34.3011944872548 95.84361275771258 19.721241527763027 C 0.0 **** -0.24
20187 H 34.85845916629655 95.49329502136933 20.589068224930827 H 0.0 **** 0.06
20188 H 33.386231654564796 95.25881239011296 19.61717735297259 H 0.0 **** 0.06
20189 H 34.91138511806829 95.72695242821453 18.826241299939113 H 0.0 **** 0.06
20190 H 34.046723974354286 96.89560376119897 19.85268515334309 H 0.0 **** 0.06
20191 C 79.41304655600484 84.77377246193272 86.16441406000452 C 0.0 **** -0.24
20192 H 80.21066905628814 85.37865810404449 85.73301005077064 H 0.0 **** 0.06
20193 H 78.83444258766679 85.37991444582941 86.86115362775769 H 0.0 **** 0.06
20194 H 79.84712180614491 83.92558695107198 86.69476184910837 H 0.0 **** 0.06
20195 H 78.76217322261465 84.41055233972087 85.36969354154287 H 0.0 **** 0.06
20196 C 101.99398743332016 64.5676520909947 116.43050832195419 C 0.0 **** -0.24
20197 H 102.87778222647704 64.01990659539376 116.75493127079318 H 0.0 **** 0.06
20198 H 101.58731526660908 65.13198160283005 117.27031467628653 H 0.0 **** 0.06
20199 H 101.24404278289371 63.86514587251253 116.06697463628059 H 0.0 **** 0.06
20200 H 102.26626615471534 65.25534879061732 115.62906691905694 H 0.0 **** 0.06
20201 C 25.702236733671953 67.66695496576679 74.66434259065016 C 0.0 **** -0.24
20202 H 24.691125857016885 67.62817231293613 74.26121318869167 H 0.0 **** 0.06
20203 H 26.4138623827302 67.3834321773345 73.88778186255038 H 0.0 **** 0.06
20204 H 25.785595723190937 66.97564885860609 75.5038167896665 H 0.0 **** 0.06
20205 H 25.919849657862983 68.67968332877834 75.00465806464764 H 0.0 **** 0.06
20206 C 18.013670290469463 110.88162454428479 70.38154809340313 C 0.0 **** -0.24
20207 H 18.166178325523845 111.95600232710412 70.28645180022943 H 0.0 **** 0.06
20208 H 17.734098150877458 110.64396065236573 71.40884800166253 H 0.0 **** 0.06
20209 H 18.935511416057523 110.3593525382612 70.12541804607832 H 0.0 **** 0.06
20210 H 17.218611810581933 110.56631483744509 69.70655516120115 H 0.0 **** 0.06
20211 C 113.51767385672503 32.083282397414195 118.70088523724532 C 0.0 **** -0.24
20212 H 112.42975814996731 32.148679038374254 118.71044515828623 H 0.0 **** 0.06
20213 H 113.82637309336678 31.102351913018936 119.06334063529698 H 0.0 **** 0.06
20214 H 113.93349547611365 32.85656499042349 119.34760323893212 H 0.0 **** 0.06
20215 H 113.88138393406331 32.226162573607496 117.68286264720751 H 0.0 **** 0.06
20216 C 40.33480029532424 68.45454090415548 44.49028127525368 C 0.0 **** -0.24
20217 H 40.81618640541055 67.95938869296094 43.64702781305087 H 0.0 **** 0.06
20218 H 40.82076063601687 68.14604631028905 45.41709811723387 H 0.0 **** 0.06
20219 H 39.28185112339054 68.17669397433225 44.521148167152425 H 0.0 **** 0.06
20220 H 40.423344928300395 69.53450407375433 44.3757951949424 H 0.0 **** 0.06
20221 C 48.78312161413578 72.53201737309485 105.3889223638503 C 0.0 **** -0.24
20222 H 48.913366021392505 73.1074704943014 104.47240023764479 H 0.0 **** 0.06
20223 H 49.60557267531786 72.74633614993675 106.071868523452 H 0.0 **** 0.06
20224 H 48.776454750629 71.46847866424383 105.1515731651379 H 0.0 **** 0.06
20225 H 47.83909723526253 72.80660688389696 105.8587044787043 H 0.0 **** 0.06
20226 C 30.377030546020904 120.88052750575186 40.77656859691098 C 0.0 **** -0.24
20227 H 30.213595948047725 120.64282647507048 41.82778792155341 H 0.0 **** 0.06
20228 H 31.351619142982855 120.504483423079 40.46683230334173 H 0.0 **** 0.06
20229 H 30.342678629073788 121.96114809586227 40.63954023709397 H 0.0 **** 0.06
20230 H 29.598420568999643 120.41331675572593 40.17448449313733 H 0.0 **** 0.06
20231 C 120.21431275348796 22.150448605305684 30.923898481196375 C 0.0 **** -0.24
20232 H 121.13651456140208 22.080999309860424 31.50050433375705 H 0.0 **** 0.06
20233 H 120.43774010797692 22.531233078401982 29.92687583554587 H 0.0 **** 0.06
20234 H 119.52364472294344 22.829038677892456 31.425379228198977 H 0.0 **** 0.06
20235 H 119.76067016802612 21.163099482259533 30.84362540445875 H 0.0 **** 0.06
20236 C 70.64207360647748 88.72021855237176 87.68387169303242 C 0.0 **** -0.24
20237 H 70.76037238670287 88.13052247063459 86.77457654785375 H 0.0 **** 0.06
20238 H 71.46346251454028 88.50428452393226 88.36676658979397 H 0.0 **** 0.06
20239 H 69.69563604690143 88.46469235387224 88.16065259497631 H 0.0 **** 0.06
20240 H 70.64698697491468 89.78078590972498 87.4323593762443 H 0.0 **** 0.06
20241 C 98.64106855669212 58.68726526368823 88.14120268183979 C 0.0 **** -0.24
20242 H 97.96781387824393 59.54211098295474 88.08385637071271 H 0.0 **** 0.06
20243 H 98.21672980657914 57.9339627862887 88.80483563828142 H 0.0 **** 0.06
20244 H 99.60732887953333 59.01063033607301 88.52722946759613 H 0.0 **** 0.06
20245 H 98.77182999934058 58.26204675705105 87.14520445325098 H 0.0 **** 0.06
20246 C 60.760705971970054 107.14115183981329 105.28954282037188 C 0.0 **** -0.24
20247 H 61.4462781995866 106.79928039716663 104.51502666654437 H 0.0 **** 0.06
20248 H 60.13990673355249 106.30760039018917 105.61808200428435 H 0.0 **** 0.06
20249 H 60.12678143880862 107.93257259178588 104.89095339266558 H 0.0 **** 0.06
20250 H 61.33074833290709 107.52457539592478 106.13580388608818 H 0.0 **** 0.06
20251 C 20.17738066941976 19.4170257672059 0.6478208154597809 C 0.0 **** -0.24
20252 H 20.17054401507835 18.3317504994304 0.5474736600517502 H 0.0 **** 0.06
20253 H 20.684768188161712 19.85813315354858 -0.21022574221957768 H 0.0 **** 0.06
20254 H 20.702157491329928 19.69349111830033 1.5620816546841922 H 0.0 **** 0.06
20255 H 19.151887183524025 19.784636760074847 0.6909717600926797 H 0.0 **** 0.06
20256 C 110.6246978740484 43.31107962444929 48.08012205190806 C 0.0 **** -0.24
20257 H 110.95116430896888 42.42719394368231 47.531721192356926 H 0.0 **** 0.06
20258 H 111.37723274830137 44.09457481979035 47.985494867895426 H 0.0 **** 0.06
20259 H 110.49293902925268 43.05812691565575 49.13154212625929 H 0.0 **** 0.06
20260 H 109.67837381185757 43.66457151142839 47.66946402252677 H 0.0 **** 0.06
20261 C 31.125170869838655 14.151363367279373 95.55378641327977 C 0.0 **** -0.24
20262 H 31.806958430503784 13.881586764439248 94.74753087679365 H 0.0 **** 0.06
20263 H 31.176459749938346 15.22707270067042 95.72834787295811 H 0.0 **** 0.06
20264 H 31.410186108913678 13.622039503769543 96.46273428930783 H 0.0 **** 0.06
20265 H 30.107842351379432 13.876855936033223 95.2765752805198 H 0.0 **** 0.06
20266 C 70.57772142235365 40.025401499542454 83.92213713881699 C 0.0 **** -0.24
20267 H 70.38986673710804 40.0461383191132 84.99588074773374 H 0.0 **** 0.06
20268 H 69.80105747741538 39.44154944859537 83.42904834423376 H 0.0 **** 0.06
20269 H 71.55080914001081 39.57031786371678 83.73338341816992 H 0.0 **** 0.06
20270 H 70.57096699450892 41.04371219435495 83.53187763788151 H 0.0 **** 0.06
20271 C 74.88437159069008 11.022577109746635 26.266038851106387 C 0.0 **** -0.24
20272 H 74.63930273287497 11.385185226532627 25.267274931220655 H 0.0 **** 0.06
20273 H 74.04802360958757 11.215840432784262 26.937407617661002 H 0.0 **** 0.06
20274 H 75.77169297340942 11.54043703597867 26.63129987039754 H 0.0 **** 0.06
20275 H 75.07904748664475 9.951173609032622 26.22588284923323 H 0.0 **** 0.06
20276 C 71.76354069213872 103.94899253079898 28.97138081761412 C 0.0 **** -0.24
20277 H 71.89722462614051 104.11586112360261 30.040363139112713 H 0.0 **** 0.06
20278 H 72.58240087226531 104.41766422949286 28.426022656029403 H 0.0 **** 0.06
20279 H 70.81744131859622 104.3860632287635 28.652241535927374 H 0.0 **** 0.06
20280 H 71.75622791041695 102.87820417868303 28.769330078645027 H 0.0 **** 0.06
20281 C 66.1960396551937 32.848771861606906 113.93976897466922 C 0.0 **** -0.24
20282 H 66.47341746138937 33.74254759546082 114.49970938386198 H 0.0 **** 0.06
20283 H 66.4598078124507 31.9621652719035 114.51636920180067 H 0.0 **** 0.06
20284 H 66.72936399363275 32.83624530920744 112.98965429734338 H 0.0 **** 0.06
20285 H 65.12217324712348 32.85526315086295 113.75393439825501 H 0.0 **** 0.06
20286 C 112.27105167925905 99.94479512461805 14.70045664420988 C 0.0 **** -0.24
20287 H 112.43086332099334 100.81271413768445 15.34001471027247 H 0.0 **** 0.06
20288 H 112.82089260766998 100.07368683949227 13.76794894551142 H 0.0 **** 0.06
20289 H 111.20667405896363 99.84342689838945 14.48434193728761 H 0.0 **** 0.06
20290 H 112.62455110546523 99.0485969199699 15.210483750557472 H 0.0 **** 0.06
20291 C 85.491710306519 23.14633393071182 90.30425013311174 C 0.0 **** -0.24
20292 H 85.58604645855695 23.831019804422937 89.46097278264875 H 0.0 **** 0.06
20293 H 86.31694118640331 23.309443588508174 90.9984158303177 H 0.0 **** 0.06
20294 H 85.51755548493804 22.118549891700752 89.94186537182577 H 0.0 **** 0.06
20295 H 84.54570715707314 23.3284134680859 90.81521867155868 H 0.0 **** 0.06
20296 C 66.24363424698853 122.24318130883229 20.35045115844008 C 0.0 **** -0.24
20297 H 67.22468523409682 122.14782965073039 19.884751956645346 H 0.0 **** 0.06
20298 H 66.32649114096674 122.85236679741195 21.250487535048592 H 0.0 **** 0.06
20299 H 65.86771339039282 121.25503081136334 20.611938644609324 H 0.0 **** 0.06
20300 H 65.55614068525935 122.72002587571636 19.651912281664863 H 0.0 **** 0.06
20301 C 109.68030822808618 14.913321082011446 82.25593014341374 C 0.0 **** -0.24
20302 H 109.17126398001892 14.084406305572411 81.76343345282669 H 0.0 **** 0.06
20303 H 109.04333824990573 15.79728293995558 82.22914631598496 H 0.0 **** 0.06
20304 H 110.6167367802426 15.122818478830425 81.73864576429287 H 0.0 **** 0.06
20305 H 109.88913434411498 14.64660310571265 83.29165879905105 H 0.0 **** 0.06
20306 C 81.46244086396736 38.74675530709469 90.82766677768944 C 0.0 **** -0.24
20307 H 80.40647205757392 38.55058554841958 90.64488562001685 H 0.0 **** 0.06
20308 H 81.56189233001486 39.50116538586348 91.60868892542851 H 0.0 **** 0.06
20309 H 81.92859445945513 39.10693569818137 89.91157152088397 H 0.0 **** 0.06
20310 H 81.95236432320833 37.8268343575723 91.1471197006174 H 0.0 **** 0.06
20311 C 40.15183351555359 88.37048786034636 66.68314163069618 C 0.0 **** -0.24
20312 H 41.17791950269301 88.44938513930967 66.32455628556029 H 0.0 **** 0.06
20313 H 39.46537723908263 88.67204238928676 65.89121839083231 H 0.0 **** 0.06
20314 H 40.01784603659633 89.02104070867205 67.54786302955257 H 0.0 **** 0.06
20315 H 39.94558674316788 87.33875183643063 66.96997750131422 H 0.0 **** 0.06
20316 C 20.25655552853145 26.63552057484874 27.208245905651978 C 0.0 **** -0.24
20317 H 19.76321036448519 26.602400257920436 26.23620147866174 H 0.0 **** 0.06
20318 H 20.39340143523856 27.67375496958799 27.511460801341286 H 0.0 **** 0.06
20319 H 21.22774019400815 26.145703813948643 27.138241698872747 H 0.0 **** 0.06
20320 H 19.64134829950477 26.11899192113853 27.945027368314783 H 0.0 **** 0.06
20321 C 40.12400733977364 24.816562932195197 9.55988984364734 C 0.0 **** -0.24
20322 H 40.817050658658275 23.99780743469404 9.753776689684742 H 0.0 **** 0.06
20323 H 39.27891474542844 24.44761101003462 8.97881955100462 H 0.0 **** 0.06
20324 H 40.635269047109375 25.600733808127558 9.000746519744894 H 0.0 **** 0.06
20325 H 39.76578698010337 25.22145888811056 10.50662643377342 H 0.0 **** 0.06
20326 C 100.13913114676079 48.1927085440333 90.3358154303123 C 0.0 **** -0.24
20327 H 100.12542876728317 49.22136568156542 90.69754668782033 H 0.0 **** 0.06
20328 H 101.03259317669253 48.03304043687653 89.7306233064164 H 0.0 **** 0.06
20329 H 99.25235349301624 48.00928248961087 89.72952923085984 H 0.0 **** 0.06
20330 H 100.14781928567389 47.50924586731512 91.18466817008465 H 0.0 **** 0.06
20331 C 62.13459270676496 39.595936865627465 25.88547033060202 C 0.0 **** -0.24
20332 H 61.85296074946018 38.55978058151871 26.070811256745074 H 0.0 **** 0.06
20333 H 61.46921137311175 40.25795003879833 26.439072997241794 H 0.0 **** 0.06
20334 H 62.05454645834129 39.80878130000312 24.81950666056651 H 0.0 **** 0.06
20335 H 63.16188996361382 39.75692339097108 26.211570567843737 H 0.0 **** 0.06
20336 C 40.81729755310957 40.547686659596934 88.39090240679651 C 0.0 **** -0.24
20337 H 40.14903650372173 39.87449464484865 87.85447314136837 H 0.0 **** 0.06
20338 H 41.4219580652244 41.105949373566034 87.67635562684305 H 0.0 **** 0.06
20339 H 41.46832899407872 39.967503908331935 89.04374822918784 H 0.0 **** 0.06
20340 H 40.22774675685781 41.242362316121245 88.99017977243001 H 0.0 **** 0.06
20341 C 43.51701584067703 10.988187423390713 12.043518397371738 C 0.0 **** -0.24
20342 H 44.35211368268993 11.62888648722813 11.762822949753005 H 0.0 **** 0.06
20343 H 43.425981919954744 10.964047854263185 13.129691423396025 H 0.0 **** 0.06
20344 H 43.6921903776378 9.978671475859699 11.67006799483675 H 0.0 **** 0.06
20345 H 42.596944153515906 11.380687035567632 11.61004305470107 H 0.0 **** 0.06
20346 C 96.80125303416791 101.2933554888535 8.116866952237643 C 0.0 **** -0.24
20347 H 97.2413922692457 100.99438533402291 9.068313756303127 H 0.0 **** 0.06
20348 H 97.47770587171883 101.97674137534148 7.60264516598761 H 0.0 **** 0.06
20349 H 95.8485371811141 101.79272976720425 8.299148757942419 H 0.0 **** 0.06
20350 H 96.63631639620536 100.41064403757845 7.499286925449468 H 0.0 **** 0.06
20351 C 81.76099517309 95.5437316109219 107.99810724112268 C 0.0 **** -0.24
20352 H 80.83537618287734 95.00615666114072 108.20398188136815 H 0.0 **** 0.06
20353 H 81.85673420013431 96.37980339734762 108.6918008210971 H 0.0 **** 0.06
20354 H 81.7428573752417 95.91960006902164 106.97582765495142 H 0.0 **** 0.06
20355 H 82.60787691032688 94.86931078455997 108.12246377597329 H 0.0 **** 0.06
20356 C 38.357266129868464 100.76831651484989 86.18522645823279 C 0.0 **** -0.24
20357 H 37.977160027473545 99.77077576660818 85.96340321873562 H 0.0 **** 0.06
20358 H 37.57101159625448 101.36014642762734 86.65457271018295 H 0.0 **** 0.06
20359 H 38.67092425471528 101.251080549568 85.25936782739994 H 0.0 **** 0.06
20360 H 39.208416318587304 100.69092554281153 86.8619883953563 H 0.0 **** 0.06
20361 C 84.30213467772916 104.85388261449236 58.5568136038635 C 0.0 **** -0.24
20362 H 83.36299582186454 105.40723111154773 58.59237241487806 H 0.0 **** 0.06
20363 H 84.26261701667526 104.12467671278591 57.7472879137279 H 0.0 **** 0.06
20364 H 84.45496111891424 104.3378247906046 59.504535659499496 H 0.0 **** 0.06
20365 H 85.12488386288955 105.54702612976848 58.383062278143214 H 0.0 **** 0.06
20366 C 108.90013597208065 40.8681928087604 5.146095322063218 C 0.0 **** -0.24
20367 H 109.78033962547178 40.23483544191461 5.255560703352614 H 0.0 **** 0.06
20368 H 108.06255498412989 40.42170698685203 5.682954950398312 H 0.0 **** 0.06
20369 H 108.64742021488296 40.959260016209214 4.089653547248645 H 0.0 **** 0.06
20370 H 109.1100512713569 41.8555658761087 5.556230239673027 H 0.0 **** 0.06
20371 C 120.30044690391829 12.61533552415844 52.71971189059553 C 0.0 **** -0.24
20372 H 119.3580141893066 12.183935460680189 52.383414058193864 H 0.0 **** 0.06
20373 H 120.66339461359757 13.32257164650818 51.97400904888025 H 0.0 **** 0.06
20374 H 121.03461974064712 11.820503475052845 52.85435218593099 H 0.0 **** 0.06
20375 H 120.14651607218914 13.13222842140668 53.667137222504635 H 0.0 **** 0.06
20376 C 46.296313577636 12.325571098026884 121.72861579121282 C 0.0 **** -0.24
20377 H 46.991716579227045 11.698343629454541 121.17160858321469 H 0.0 **** 0.06
20378 H 45.33540751575714 11.816959596918636 121.81206419341244 H 0.0 **** 0.06
20379 H 46.16128537598979 13.27243711405724 121.20521835779273 H 0.0 **** 0.06
20380 H 46.69532730875193 12.515159566958275 122.72500775919855 H 0.0 **** 0.06
20381 C 59.14693690148508 105.31770241677876 121.18688585613239 C 0.0 **** -0.24
20382 H 60.10608107256053 104.85946715912668 120.94506643695071 H 0.0 **** 0.06
20383 H 58.79421928817683 105.89449976584476 120.33099632265541 H 0.0 **** 0.06
20384 H 59.265424463517974 105.9773531430621 122.04614559103422 H 0.0 **** 0.06
20385 H 58.42203854948295 104.53807136325185 121.42360630940924 H 0.0 **** 0.06
20386 C 53.0359143146533 56.74695613425149 103.0719139757343 C 0.0 **** -0.24
20387 H 53.67261262609962 56.864538211986144 103.94930754306083 H 0.0 **** 0.06
20388 H 52.01926330498084 56.5142998546541 103.3888469181122 H 0.0 **** 0.06
20389 H 53.4191129407167 55.93607484886314 102.45202681718894 H 0.0 **** 0.06
20390 H 53.03477100490731 57.67405258493426 102.49800142752878 H 0.0 **** 0.06
20391 C 33.33393682478135 122.17354745811977 68.47644815126424 C 0.0 **** -0.24
20392 H 32.96510047116945 121.29480701685509 69.00534575992228 H 0.0 **** 0.06
20393 H 32.493979066462316 122.81519814428253 68.20965031471664 H 0.0 **** 0.06
20394 H 33.85395636376097 121.86049998123403 67.57116219875346 H 0.0 **** 0.06
20395 H 34.02161845142996 122.72201889317068 69.11945882257865 H 0.0 **** 0.06
20396 C 36.146456979267725 19.534270605251784 1.5177783500651572 C 0.0 **** -0.24
20397 H 37.004788772915504 19.094476898899845 1.0093240593174642 H 0.0 **** 0.06
20398 H 35.630382957754875 18.763018869330693 2.0900738178029172 H 0.0 **** 0.06
20399 H 35.46491940220159 19.95735366011442 0.7793807606089729 H 0.0 **** 0.06
20400 H 36.4867411168687 20.3209125801187 2.190835397758505 H 0.0 **** 0.06
20401 C 55.0687214717874 121.92951775540584 58.69014375284229 C 0.0 **** -0.24
20402 H 54.440443540254336 121.1665640084619 59.15110925389959 H 0.0 **** 0.06
20403 H 54.80289375686152 122.03124482651432 57.637410169186964 H 0.0 **** 0.06
20404 H 56.115071483628924 121.6369776306002 58.773639845439945 H 0.0 **** 0.06
20405 H 54.91530964273767 122.88138197640001 59.19828350294274 H 0.0 **** 0.06
20406 C 118.40402670172787 6.990488119499332 26.750315846582453 C 0.0 **** -0.24
20407 H 118.64617996227832 6.975900084636464 25.68814559721926 H 0.0 **** 0.06
20408 H 117.3288525049893 6.862504467010467 26.879619333973324 H 0.0 **** 0.06
20409 H 118.71075719942584 7.943642672084081 27.181353574229718 H 0.0 **** 0.06
20410 H 118.93031721368405 6.178043008223369 27.25373622041036 H 0.0 **** 0.06
20411 C 58.288698047687575 6.32531475186363 105.5447968565238 C 0.0 **** -0.24
20412 H 57.60459404928015 5.575018155461066 105.14956098639728 H 0.0 **** 0.06
20413 H 57.764274503477154 7.275270277417064 105.65127778819672 H 0.0 **** 0.06
20414 H 59.12798907697919 6.447798435186314 104.86035181823969 H 0.0 **** 0.06
20415 H 58.65817052068644 6.003666565617095 106.51883344509652 H 0.0 **** 0.06
20416 C 37.38579375820777 35.968278441962156 87.9324983257012 C 0.0 **** -0.24
20417 H 38.061050781393504 35.76821789428635 87.10139402213261 H 0.0 **** 0.06
20418 H 37.952716772863425 36.37877961488448 88.76948573062893 H 0.0 **** 0.06
20419 H 36.9040275945939 35.041063213445426 88.24094269614636 H 0.0 **** 0.06
20420 H 36.62769856615489 36.685705460106774 87.62066057502355 H 0.0 **** 0.06
20421 C 117.75021794011732 63.765560856596665 51.56576216999247 C 0.0 **** -0.24
20422 H 117.73699409997283 64.51616808601045 50.7743635848681 H 0.0 **** 0.06
20423 H 118.35893805623334 62.917980656161646 51.252488685776655 H 0.0 **** 0.06
20424 H 116.73228787938933 63.429923939024334 51.763956414992265 H 0.0 **** 0.06
20425 H 118.17221722535251 64.20184022889117 52.47165105438222 H 0.0 **** 0.06
20426 C 95.81502843594131 33.69808926001103 99.7272657982187 C 0.0 **** -0.24
20427 H 95.5226875422029 34.562229211405196 100.32312870846448 H 0.0 **** 0.06
20428 H 96.67614771389316 33.213289474249216 100.18853635833989 H 0.0 **** 0.06
20429 H 96.07776992219186 34.023548735062604 98.71979130808563 H 0.0 **** 0.06
20430 H 94.98484929525819 32.99363779904519 99.67585140274684 H 0.0 **** 0.06
20431 C 116.01776703675468 104.53427159731302 14.877831985838128 C 0.0 **** -0.24
20432 H 116.76457300810554 103.75310079564343 15.027303869729934 H 0.0 **** 0.06
20433 H 115.66063615306476 104.88443691951547 15.84642348806517 H 0.0 **** 0.06
20434 H 115.18225946626607 104.13181603877706 14.305191328423405 H 0.0 **** 0.06
20435 H 116.46574132022933 105.3651606842126 14.333302790005007 H 0.0 **** 0.06
20436 C 35.202028776527584 78.30206309129571 55.13692013338115 C 0.0 **** -0.24
20437 H 34.45768319581373 78.01529311956617 54.39267591363986 H 0.0 **** 0.06
20438 H 35.86447685943625 79.05814107788257 54.71428391050168 H 0.0 **** 0.06
20439 H 35.78547318048447 77.42626834207337 55.42240382098012 H 0.0 **** 0.06
20440 H 34.70004269476192 78.70741176359948 56.015576008592234 H 0.0 **** 0.06
20441 C 6.194932511643483 49.337348510035184 59.03219747625813 C 0.0 **** -0.24
20442 H 7.105643346887092 49.81339291386193 59.3959490663583 H 0.0 **** 0.06
20443 H 5.32676694528028 49.862064806930164 59.431228894721514 H 0.0 **** 0.06
20444 H 6.174448907886468 48.29776753007508 59.359025424515266 H 0.0 **** 0.06
20445 H 6.175259736122818 49.376215418919486 57.94312629150505 H 0.0 **** 0.06
20446 C 18.097942622332425 60.394662336390596 106.51297931298785 C 0.0 **** -0.24
20447 H 17.915157109305483 61.37416638507341 106.95576484182976 H 0.0 **** 0.06
20448 H 18.04312970016423 59.629936629678554 107.2886950608376 H 0.0 **** 0.06
20449 H 19.08877392505059 60.38092319539467 106.0585672863441 H 0.0 **** 0.06
20450 H 17.345532899876616 60.194065766106576 105.75065831766278 H 0.0 **** 0.06
20451 C 95.21616676222241 103.84302622654846 77.60332375158663 C 0.0 **** -0.24
20452 H 95.43609945766504 104.69924930412489 76.96521687313192 H 0.0 **** 0.06
20453 H 94.22315247884788 103.95875929480196 78.03557610967535 H 0.0 **** 0.06
20454 H 95.95677538484935 103.78589221420542 78.40140602295382 H 0.0 **** 0.06
20455 H 95.25111648178418 102.92958340781084 77.01011433781889 H 0.0 **** 0.06
20456 C 122.25486542236759 64.24190757595886 121.65367404983415 C 0.0 **** -0.24
20457 H 121.39849151997221 63.71904631726366 121.2282501067052 H 0.0 **** 0.06
20458 H 121.9985082285703 64.61248990771885 122.6469532224867 H 0.0 **** 0.06
20459 H 122.52501669146866 65.08013075189399 121.01216890256066 H 0.0 **** 0.06
20460 H 123.09833839685768 63.55515581365981 121.72892097243357 H 0.0 **** 0.06
20461 C 93.78880169253944 37.017073484049604 10.002069294896437 C 0.0 **** -0.24
20462 H 94.61538066677255 37.68365300876022 10.249230523661524 H 0.0 **** 0.06
20463 H 93.40084660458277 36.56546441648027 10.916515545179568 H 0.0 **** 0.06
20464 H 94.14224865734997 36.23342636954101 9.331519386086558 H 0.0 **** 0.06
20465 H 92.99723341944201 37.584205888050946 9.512548918537934 H 0.0 **** 0.06
20466 C 59.415508498096685 87.07837091720829 71.70563072592357 C 0.0 **** -0.24
20467 H 59.66674618493255 87.87375666217028 71.0036073111142 H 0.0 **** 0.06
20468 H 60.05310413587166 86.21433587778195 71.51840636241751 H 0.0 **** 0.06
20469 H 58.37129345805798 86.79516391647023 71.57425935003526 H 0.0 **** 0.06
20470 H 59.57069970452075 87.43149241186548 72.72508234531851 H 0.0 **** 0.06
20471 C 36.86144533700956 93.84316106066143 5.964005078865938 C 0.0 **** -0.24
20472 H 36.44877412042592 94.54163145102743 6.691811560623194 H 0.0 **** 0.06
20473 H 36.42749491673572 94.04261164874615 4.983889659222797 H 0.0 **** 0.06
20474 H 36.62382964145443 92.8221396008131 6.2660096761211435 H 0.0 **** 0.06
20475 H 37.943065832100714 93.96569689736808 5.915222528358981 H 0.0 **** 0.06
20476 C 114.58133788236094 47.26854048956426 97.33404274200512 C 0.0 **** -0.24
20477 H 114.8966313924258 48.22274192204813 96.91252369347495 H 0.0 **** 0.06
20478 H 113.4921487910076 47.21994116244505 97.34738354596931 H 0.0 **** 0.06
20479 H 114.96200156860309 47.17819324142542 98.35179628879905 H 0.0 **** 0.06
20480 H 114.97513534199061 46.45411518359565 96.72546347625268 H 0.0 **** 0.06
20481 C 105.93103153685684 103.81498534581057 108.53640170284308 C 0.0 **** -0.24
20482 H 105.38110464781883 104.27459831106832 107.71525492087201 H 0.0 **** 0.06
20483 H 105.71921830485141 102.74539921362413 108.56176789703898 H 0.0 **** 0.06
20484 H 105.62351334918861 104.26856104361316 109.47846716803008 H 0.0 **** 0.06
20485 H 106.99955428422925 103.9707578429624 108.38908315875653 H 0.0 **** 0.06
20486 C 47.00196977445225 21.47700080234231 90.64187265006672 C 0.0 **** -0.24
20487 H 46.38632298767192 21.658384583684047 89.760616337757 H 0.0 **** 0.06
20488 H 47.68966911162212 20.655570767734055 90.4405171600462 H 0.0 **** 0.06
20489 H 46.36179658347643 21.217472616913717 91.48538503591627 H 0.0 **** 0.06
20490 H 47.56880094550215 22.37713205954899 90.87995846784412 H 0.0 **** 0.06
20491 C 15.361636412055702 105.40175841068844 104.27209939102381 C 0.0 **** -0.24
20492 H 16.318858439247634 105.07019759624731 103.8705883857779 H 0.0 **** 0.06
20493 H 14.584947686877939 105.26393076276105 103.5197810559616 H 0.0 **** 0.06
20494 H 15.426472289020694 106.45580199936848 104.54068473858041 H 0.0 **** 0.06
20495 H 15.117727493591957 104.81489342347263 105.15833564533364 H 0.0 **** 0.06
20496 C 12.991103245378461 72.73117149655275 109.9355210619234 C 0.0 **** -0.24
20497 H 11.91224087002854 72.59290450397089 109.858022851337 H 0.0 **** 0.06
20498 H 13.256915496551333 73.72166239759048 109.56552733615727 H 0.0 **** 0.06
20499 H 13.498370099761416 71.97242460901509 109.34033020055665 H 0.0 **** 0.06
20500 H 13.294833298033172 72.63843615754536 110.97771963300086 H 0.0 **** 0.06
20501 C 93.24399391246257 92.16777096610508 11.115577983850358 C 0.0 **** -0.24
20502 H 92.4857079073029 92.65899421733076 11.725031623612693 H 0.0 **** 0.06
20503 H 94.17506672849126 92.10174769337192 11.679382117317829 H 0.0 **** 0.06
20504 H 93.40901450191237 92.74450708328771 10.20579485899907 H 0.0 **** 0.06
20505 H 92.90615568151051 91.16455800061453 10.854193544716878 H 0.0 **** 0.06
20506 C 121.24826174943816 50.04010940573547 92.9411791405081 C 0.0 **** -0.24
20507 H 121.79856855068002 50.20129743757741 92.01344231053122 H 0.0 **** 0.06
20508 H 120.18480477252403 50.197597566515306 92.76325666623808 H 0.0 **** 0.06
20509 H 121.59894058061344 50.74262155750436 93.69743422850128 H 0.0 **** 0.06
20510 H 121.41265304844778 49.02042608371117 93.28883717092971 H 0.0 **** 0.06
20511 C 75.57474723596941 107.92961022048982 85.46392880085074 C 0.0 **** -0.24
20512 H 75.54085056805465 107.35282902719199 84.54033196714728 H 0.0 **** 0.06
20513 H 76.44525497434823 107.62916708612516 86.04841745935447 H 0.0 **** 0.06
20514 H 74.66811961853888 107.74583301129421 86.0401067141008 H 0.0 **** 0.06
20515 H 75.64498873800558 108.99181010948449 85.22614250532159 H 0.0 **** 0.06
20516 C 106.53262378083299 38.91177763348218 52.94045445381195 C 0.0 **** -0.24
20517 H 106.95934842299562 38.279422652230394 53.71881551976202 H 0.0 **** 0.06
20518 H 106.7929495648067 39.952284419308455 53.1342115558289 H 0.0 **** 0.06
20519 H 105.4474024825051 38.802672570311614 52.93918686120804 H 0.0 **** 0.06
20520 H 106.92932312298423 38.61146808714973 51.97009391676154 H 0.0 **** 0.06
20521 C 118.40113705566378 49.16692481209245 27.321310911034544 C 0.0 **** -0.24
20522 H 118.3259241638265 48.629840900551415 28.266669882415073 H 0.0 **** 0.06
20523 H 118.15298069673686 48.49396810236365 26.500382527998553 H 0.0 **** 0.06
20524 H 119.41974863296451 49.535481710158024 27.194027545663815 H 0.0 **** 0.06
20525 H 117.70893203133002 50.00817337522349 27.325012234645584 H 0.0 **** 0.06
20526 C 72.06821438132343 76.98390067292527 66.22886312571038 C 0.0 **** -0.24
20527 H 72.06045132065685 76.03179830628605 66.75947176257674 H 0.0 **** 0.06
20528 H 71.65585956541277 76.84490501729636 65.22854691484164 H 0.0 **** 0.06
20529 H 73.0927687479594 77.34797425986278 66.15255795443309 H 0.0 **** 0.06
20530 H 71.46370235003295 77.7087489873706 66.77375376887468 H 0.0 **** 0.06
20531 C 12.24142380817365 54.70504036932937 69.22403236247024 C 0.0 **** -0.24
20532 H 12.57859797112199 54.82086731912989 70.25401605235771 H 0.0 **** 0.06
20533 H 13.106538621967868 54.659272487926444 68.56182437610673 H 0.0 **** 0.06
20534 H 11.617168005376566 55.55544070257088 68.94847890000949 H 0.0 **** 0.06
20535 H 11.664235189131915 53.78567200685825 69.1321207140607 H 0.0 **** 0.06
20536 C 51.49308927374881 120.89275508349286 90.91341724491167 C 0.0 **** -0.24
20537 H 51.43240827251225 120.88877763217346 92.00190919482964 H 0.0 **** 0.06
20538 H 51.311842288093374 121.9027253439008 90.5441647957312 H 0.0 **** 0.06
20539 H 50.74325133471268 120.21568642807931 90.50569338667532 H 0.0 **** 0.06
20540 H 52.48568691530238 120.56592146822146 90.60412386129246 H 0.0 **** 0.06
20541 C 40.60190074438236 88.32837840384238 75.95135692683952 C 0.0 **** -0.24
20542 H 40.47783147135635 87.80492235345324 75.00248476757407 H 0.0 **** 0.06
20543 H 41.660430248582486 88.52434522599856 76.12130098387328 H 0.0 **** 0.06
20544 H 40.210089759915604 87.71140276783098 76.75987527046576 H 0.0 **** 0.06
20545 H 40.05726170603981 89.27270690671543 75.91764075998191 H 0.0 **** 0.06
20546 C 81.29904977194155 8.778997029380264 114.00903829305369 C 0.0 **** -0.24
20547 H 81.68898873329397 7.920018971859349 114.55540632549531 H 0.0 **** 0.06
20548 H 80.45012742896496 9.198872634829968 114.5502130628831 H 0.0 **** 0.06
20549 H 80.97648446594506 8.461939953411957 113.01681241466812 H 0.0 **** 0.06
20550 H 82.07910011350764 9.533496936839583 113.91369159085522 H 0.0 **** 0.06
20551 C 101.70495253871695 62.7922293629278 39.91369441561358 C 0.0 **** -0.24
20552 H 102.5925187286637 62.22130483613901 40.18472965546499 H 0.0 **** 0.06
20553 H 100.82638245863583 62.15024009492828 39.980388655765125 H 0.0 **** 0.06
20554 H 101.80793001319516 63.1613288048994 38.89285064951878 H 0.0 **** 0.06
20555 H 101.59283557293122 63.6353091068315 40.594476296670166 H 0.0 **** 0.06
20556 C 43.18340147702685 63.3870460941184 81.60984785665045 C 0.0 **** -0.24
20557 H 43.755935105239075 64.21387282470171 81.19108248144062 H 0.0 **** 0.06
20558 H 42.27448033478021 63.24249656351368 81.02552986394221 H 0.0 **** 0.06
20559 H 42.91932900399644 63.61434375411832 82.64210516382377 H 0.0 **** 0.06
20560 H 43.78279399961366 62.47749884838453 81.5797466287191 H 0.0 **** 0.06
20561 C 24.633254530876712 69.5074829417179 11.801226892569218 C 0.0 **** -0.24
20562 H 25.4625930021586 69.53171755973122 12.50902570459715 H 0.0 **** 0.06
20563 H 23.737934734497458 69.14126407816082 12.304671001167094 H 0.0 **** 0.06
20564 H 24.8825473641989 68.84416005796862 10.972896915174204 H 0.0 **** 0.06
20565 H 24.451420857285086 70.5115962806279 11.420635877832439 H 0.0 **** 0.06
20566 C 53.906737613776954 54.204640912760425 75.97732013309195 C 0.0 **** -0.24
20567 H 52.935279979290186 53.958862813395484 76.40571232890596 H 0.0 **** 0.06
20568 H 54.5738364360806 54.552978095861704 76.76670353131635 H 0.0 **** 0.06
20569 H 53.785162749798786 54.99044282342825 75.23143566224292 H 0.0 **** 0.06
20570 H 54.33126856811903 53.31845199076457 75.50657570163952 H 0.0 **** 0.06
20571 C 14.476518224771993 81.14096851956751 84.14183266270172 C 0.0 **** -0.24
20572 H 14.112083262647303 81.20311264558532 83.1157512580654 H 0.0 **** 0.06
20573 H 13.838261862461508 80.4667588311477 84.71350464312039 H 0.0 **** 0.06
20574 H 14.45645354067318 82.13247873767321 84.59459598241384 H 0.0 **** 0.06
20575 H 15.49849005427913 80.7619287859778 84.14142417005583 H 0.0 **** 0.06
20576 C 18.455432373232654 59.6166364039629 85.06093302932527 C 0.0 **** -0.24
20577 H 17.613748527963736 60.30993644687325 85.07706155798168 H 0.0 **** 0.06
20578 H 18.375150573698434 58.969740369941604 84.18658005074226 H 0.0 **** 0.06
20579 H 18.442492568055457 59.00867801770201 85.96548643486044 H 0.0 **** 0.06
20580 H 19.38835062861571 60.17830032394059 85.01358460024053 H 0.0 **** 0.06
20581 C 42.74481655498598 101.54756662795523 109.02957334246281 C 0.0 **** -0.24
20582 H 43.285263566411345 101.00808923609267 109.8073534375659 H 0.0 **** 0.06
20583 H 43.42582985106903 102.23071906988426 108.52193435407449 H 0.0 **** 0.06
20584 H 41.928631510940356 102.113200093638 109.47894452506802 H 0.0 **** 0.06
20585 H 42.34005425279671 100.83607210351894 108.30908199313794 H 0.0 **** 0.06
20586 C 103.38460319115723 89.24945491737631 42.364063659820886 C 0.0 **** -0.24
20587 H 103.77178934230085 90.14227290375 41.872036536977475 H 0.0 **** 0.06
20588 H 103.70110644738833 88.36420841113228 41.812441488285685 H 0.0 **** 0.06
20589 H 102.29525930218182 89.29241785984 42.38851439435717 H 0.0 **** 0.06
20590 H 103.76890426550892 89.20049960864503 43.38244066239372 H 0.0 **** 0.06
20591 C 3.743550241902554 75.93480929158514 52.41306086270947 C 0.0 **** -0.24
20592 H 3.364616404995189 76.95502132243988 52.348066281010034 H 0.0 **** 0.06
20593 H 4.832391122419651 75.95464830072049 52.46190419562714 H 0.0 **** 0.06
20594 H 3.4290767898623074 75.3748349916309 51.531684097595104 H 0.0 **** 0.06
20595 H 3.3472635095482133 75.45610738141104 53.30806252028384 H 0.0 **** 0.06
20596 C 57.70311448851584 62.62441121247292 52.16449143944911 C 0.0 **** -0.24
20597 H 56.81655019033485 62.09397733724232 52.51139969068434 H 0.0 **** 0.06
20598 H 57.96919881035507 63.39776199184287 52.88535372511235 H 0.0 **** 0.06
20599 H 57.49566174952531 63.084281050034875 51.19852468320158 H 0.0 **** 0.06
20600 H 58.53043545427852 61.92228110836301 52.06224647497963 H 0.0 **** 0.06
20601 C 45.04311429353538 41.62150925445309 115.40181494085107 C 0.0 **** -0.24
20602 H 46.09474934225568 41.488620597171476 115.65514677551187 H 0.0 **** 0.06
20603 H 44.95499302704775 42.318540172881626 114.56812838247754 H 0.0 **** 0.06
20604 H 44.50917475502922 42.017865265850446 116.26558933204245 H 0.0 **** 0.06
20605 H 44.61321835618696 40.66011948261378 115.11871432798233 H 0.0 **** 0.06
20606 C 63.50952584849968 5.782594929193504 89.12275872415489 C 0.0 **** -0.24
20607 H 63.89902942752599 4.96951597560831 89.73611207503882 H 0.0 **** 0.06
20608 H 63.70443027867029 5.570537242202924 88.07167476567139 H 0.0 **** 0.06
20609 H 63.99778773607089 6.715169324007068 89.4038049474243 H 0.0 **** 0.06
20610 H 62.434503789851306 5.873255288286153 89.28164558716128 H 0.0 **** 0.06
20611 C 124.29733999967902 20.245431442298333 87.5458428980012 C 0.0 **** -0.24
20612 H 124.00292319743423 20.941627201332793 88.33106319196379 H 0.0 **** 0.06
20613 H 125.32785537181414 20.446761307332153 87.2503498321587 H 0.0 **** 0.06
20614 H 123.64080327876158 20.37015012989744 86.68517196799876 H 0.0 **** 0.06
20615 H 124.21909380160298 19.22427502284586 87.91823083717857 H 0.0 **** 0.06
20616 C 114.86185092327307 108.27598265614452 64.65740578627674 C 0.0 **** -0.24
20617 H 115.06355202905912 108.4507542416224 65.71358247164636 H 0.0 **** 0.06
20618 H 115.73469251105084 107.81614224668775 64.19296621411107 H 0.0 **** 0.06
20619 H 114.64721528857169 109.22564726815918 64.16617321701071 H 0.0 **** 0.06
20620 H 114.00388328316915 107.61261142200576 64.55604133282313 H 0.0 **** 0.06
20621 C 23.813370659083148 40.62912216841212 41.424351927325674 C 0.0 **** -0.24
20622 H 23.771622010657552 40.686162181258155 42.51279635881271 H 0.0 **** 0.06
20623 H 23.730364436028395 41.63182426136306 41.00451718427449 H 0.0 **** 0.06
20624 H 22.99000332278476 40.01299053201863 41.06171740837365 H 0.0 **** 0.06
20625 H 24.761229019969903 40.18444527682659 41.12032442225488 H 0.0 **** 0.06
20626 C 112.65723128392735 70.85290654489401 57.93296465629062 C 0.0 **** -0.24
20627 H 112.64260997800129 71.8274320213433 57.4421946865445 H 0.0 **** 0.06
20628 H 112.06188775911777 70.89759015365937 58.84465492344168 H 0.0 **** 0.06
20629 H 113.68538522611756 70.58787737902216 58.18058482748624 H 0.0 **** 0.06
20630 H 112.23983617086847 70.10226651827594 57.26145098978776 H 0.0 **** 0.06
20631 C 41.41510063259984 94.57100010769051 70.5919724147082 C 0.0 **** -0.24
20632 H 40.69960243496756 94.49909901429781 69.77325986977606 H 0.0 **** 0.06
20633 H 41.87001223971891 95.56243796481735 70.59151603277468 H 0.0 **** 0.06
20634 H 42.19052853577486 93.81597592267163 70.4644783858691 H 0.0 **** 0.06
20635 H 40.90075246664744 94.40735916798677 71.53963394890506 H 0.0 **** 0.06
20636 C 87.77365749074238 19.71782223307921 54.677484140038956 C 0.0 **** -0.24
20637 H 87.74407573002327 19.394862987903924 55.718518239775875 H 0.0 **** 0.06
20638 H 88.79654626850845 19.980336436113127 54.40830664192006 H 0.0 **** 0.06
20639 H 87.12854454624029 20.5868242301351 54.54885477665775 H 0.0 **** 0.06
20640 H 87.42471192505678 18.907629934451844 54.036657191704165 H 0.0 **** 0.06
20641 C 6.993457240707926 50.15521575537488 38.568628336957204 C 0.0 **** -0.24
20642 H 7.442181732806489 50.244326686700745 37.579129830024556 H 0.0 **** 0.06
20643 H 6.179112646822006 50.87452683494277 38.664164955907296 H 0.0 **** 0.06
20644 H 7.74735657610006 50.35519996220373 39.32999803225809 H 0.0 **** 0.06
20645 H 6.60369148005708 49.14523129705307 38.700673115654894 H 0.0 **** 0.06
20646 C 52.62133781032637 17.81195492045498 1.5670204090626356 C 0.0 **** -0.24
20647 H 52.34595094724264 18.83934398218429 1.8032796931824464 H 0.0 **** 0.06
20648 H 52.008040023343 17.127430807353477 2.152814107577754 H 0.0 **** 0.06
20649 H 53.67275316801741 17.653564897787618 1.8051821386479787 H 0.0 **** 0.06
20650 H 52.45829458568815 17.62778377871777 0.5046124534954544 H 0.0 **** 0.06
20651 C 71.91188944281262 119.58865779991075 114.20816126682327 C 0.0 **** -0.24
20652 H 72.24811162435898 119.5663826059364 115.24464385386446 H 0.0 **** 0.06
20653 H 71.6914751880314 120.61662304322833 113.91992397475312 H 0.0 **** 0.06
20654 H 71.0118505737206 118.98204214438816 114.10619947872394 H 0.0 **** 0.06
20655 H 72.69460499984623 119.18912075807219 113.56374588360016 H 0.0 **** 0.06
20656 C 17.821009704769306 98.71553157465021 16.853597974021085 C 0.0 **** -0.24
20657 H 18.83433032078216 99.08807774826738 17.003782487508516 H 0.0 **** 0.06
20658 H 17.143472635339567 99.55751307595527 16.708617193667493 H 0.0 **** 0.06
20659 H 17.510831182119393 98.14567076083856 17.729530990775515 H 0.0 **** 0.06
20660 H 17.79711635877393 98.07303456554082 15.973628436000013 H 0.0 **** 0.06
20661 C 56.728820192676324 41.3512273185821 99.43797304416542 C 0.0 **** -0.24
20662 H 56.33825737920671 41.51500818644123 98.43383102251168 H 0.0 **** 0.06
20663 H 57.52394124510039 40.60567787348665 99.40191321191006 H 0.0 **** 0.06
20664 H 55.92693683927587 40.99734646412199 100.08652387211531 H 0.0 **** 0.06
20665 H 57.12597379746785 42.287998746466776 99.83093245457277 H 0.0 **** 0.06
20666 C 55.620593754716666 123.01166132003482 23.85876552544906 C 0.0 **** -0.24
20667 H 54.93145003990789 122.38174047753586 23.297052668749757 H 0.0 **** 0.06
20668 H 56.41486574830513 123.36059906571941 23.197953736058338 H 0.0 **** 0.06
20669 H 56.05512352913031 122.43638762934216 24.676641918224078 H 0.0 **** 0.06
20670 H 55.08163411557679 123.8686046145508 24.263211344676165 H 0.0 **** 0.06
20671 C 99.52070504975597 38.363439718026626 40.61328995947389 C 0.0 **** -0.24
20672 H 98.92808562311936 37.879803216589806 39.8360237772884 H 0.0 **** 0.06
20673 H 100.04768297839414 39.218629173520185 40.18864654042977 H 0.0 **** 0.06
20674 H 100.24468467980822 37.65289047096016 41.01256679125453 H 0.0 **** 0.06
20675 H 98.86296731402581 38.70129908394691 41.41409319642361 H 0.0 **** 0.06
20676 C 89.26335437847044 13.985036644700102 99.43831884439484 C 0.0 **** -0.24
20677 H 89.21158909384523 13.27593613216953 100.26468954874792 H 0.0 **** 0.06
20678 H 89.89215157025666 14.82879894535202 99.72355034600909 H 0.0 **** 0.06
20679 H 88.26135376609682 14.34087991507398 99.20095628182466 H 0.0 **** 0.06
20680 H 89.68944705536772 13.491972778088105 98.56451465210094 H 0.0 **** 0.06
20681 C 92.68471911367175 120.96581134212254 33.42536686652204 C 0.0 **** -0.24
20682 H 93.51366164315749 121.65312914331274 33.25453869585556 H 0.0 **** 0.06
20683 H 92.60439999147975 120.2780602282543 32.58303320458185 H 0.0 **** 0.06
20684 H 91.75890143764849 121.53148655479862 33.52323829592922 H 0.0 **** 0.06
20685 H 92.86542534948633 120.40127962163383 34.34025424445281 H 0.0 **** 0.06
20686 C 45.99155221908836 5.856362120220538 66.20358038676397 C 0.0 **** -0.24
20687 H 46.65870189357139 5.0684724953539835 66.55037406011661 H 0.0 **** 0.06
20688 H 45.591208992148154 5.589026201848263 65.2251093496032 H 0.0 **** 0.06
20689 H 46.543724041445614 6.793180436486004 66.12727546580928 H 0.0 **** 0.06
20690 H 45.17097517855376 5.975222462871045 66.91107402081971 H 0.0 **** 0.06
20691 C 78.31889103549123 62.918415983465394 45.06729223609031 C 0.0 **** -0.24
20692 H 77.36440810030044 62.54945575891176 45.442510010764124 H 0.0 **** 0.06
20693 H 79.02365458732915 63.00869675875248 45.8937977815674 H 0.0 **** 0.06
20694 H 78.17378003160219 63.89522710136154 44.603980636186066 H 0.0 **** 0.06
20695 H 78.71215187795198 62.22104036711599 44.327158529818576 H 0.0 **** 0.06
20696 C 74.32538161810947 76.40780237792154 112.85099653362414 C 0.0 **** -0.24
20697 H 73.91739249504539 76.37457078005605 111.84005374501436 H 0.0 **** 0.06
20698 H 74.66678343387866 77.41983529316121 113.0703476846571 H 0.0 **** 0.06
20699 H 75.16364265094853 75.71576880568739 112.92781222273297 H 0.0 **** 0.06
20700 H 73.55149103724506 76.12260033832183 113.56339870540532 H 0.0 **** 0.06
20701 C 15.706822969847195 115.20339570921809 13.133689745382924 C 0.0 **** -0.24
20702 H 15.819698337609026 114.27137194179747 13.688188254807642 H 0.0 **** 0.06
20703 H 15.689163629902652 116.04089629509201 13.831111873081966 H 0.0 **** 0.06
20704 H 14.773483975266913 115.17899084096021 12.570954064963132 H 0.0 **** 0.06
20705 H 16.543901590059875 115.32041812017133 12.445635364900852 H 0.0 **** 0.06
20706 C 46.41189890074074 92.92335616172554 56.82788101784121 C 0.0 **** -0.24
20707 H 46.42091449065808 91.91896298128412 57.25007968388326 H 0.0 **** 0.06
20708 H 46.36774458011999 93.65544877462509 57.63469484374775 H 0.0 **** 0.06
20709 H 45.540944321595504 93.03861285399168 56.18326975224994 H 0.0 **** 0.06
20710 H 47.318973604509935 93.08027027267286 56.2436214982784 H 0.0 **** 0.06
20711 C 28.472029095534552 85.7097388955018 90.11354370880719 C 0.0 **** -0.24
20712 H 27.72191929697594 85.0484248275319 90.54700038375262 H 0.0 **** 0.06
20713 H 28.001406741334847 86.64792180985376 89.81735931443788 H 0.0 **** 0.06
20714 H 28.913733010650276 85.23283418164908 89.23821617784479 H 0.0 **** 0.06
20715 H 29.249884345231322 85.90939286862533 90.85002464331652 H 0.0 **** 0.06
20716 C 47.73267452224334 70.76323947446052 15.26788738876553 C 0.0 **** -0.24
20717 H 48.06090210887962 69.72593771175661 15.323604023975577 H 0.0 **** 0.06
20718 H 47.18567921563064 70.92185219522565 14.338236446861856 H 0.0 **** 0.06
20719 H 48.60092315468367 71.42082099413163 15.296444519967253 H 0.0 **** 0.06
20720 H 47.08230437267551 70.98508643806642 16.11455400008404 H 0.0 **** 0.06
20721 C 75.11413301599211 98.36051027175915 2.2951044412271244 C 0.0 **** -0.24
20722 H 74.41074746231928 97.93059726026307 1.5817235519333508 H 0.0 **** 0.06
20723 H 74.57014758666304 98.95026229585744 3.0320427291995315 H 0.0 **** 0.06
20724 H 75.82175912102312 99.00006983618344 1.766446113313691 H 0.0 **** 0.06
20725 H 75.65527144798588 97.55856306083304 2.7983177487001853 H 0.0 **** 0.06
20726 C 55.607192426063975 42.59842800924919 116.33045212027328 C 0.0 **** -0.24
20727 H 55.86135225060346 42.74267352884167 117.38050055513037 H 0.0 **** 0.06
20728 H 55.25672897168235 43.540514194273655 115.90901803713145 H 0.0 **** 0.06
20729 H 54.82090824138089 41.848105469338314 116.24710958699944 H 0.0 **** 0.06
20730 H 56.489634754009145 42.2621807438783 115.78614061186099 H 0.0 **** 0.06
20731 C 102.29837959203384 109.22430718164588 15.164481227848306 C 0.0 **** -0.24
20732 H 101.52329697967157 109.98626033490024 15.080594057900058 H 0.0 **** 0.06
20733 H 102.05398723484535 108.54608033819176 15.982692380230006 H 0.0 **** 0.06
20734 H 103.25742021159489 109.70230440072334 15.36203226134812 H 0.0 **** 0.06
20735 H 102.35790723307372 108.66311925086302 14.231662219961475 H 0.0 **** 0.06
20736 C 38.68659120144525 27.986832376946893 68.45940563184911 C 0.0 **** -0.24
20737 H 38.42033532376186 28.85165169777349 67.85169019015217 H 0.0 **** 0.06
20738 H 39.63312806098318 28.176805740844998 68.96504164666521 H 0.0 **** 0.06
20739 H 38.78533422149184 27.109868956915477 67.8190012849658 H 0.0 **** 0.06
20740 H 37.90729483733355 27.80972279877801 69.20125071652114 H 0.0 **** 0.06
20741 C 48.023759561618846 74.7780121621854 18.43659856349842 C 0.0 **** -0.24
20742 H 48.12275767576743 75.41139270917056 19.317611112978128 H 0.0 **** 0.06
20743 H 46.99441051464266 74.81359464067404 18.07802611148385 H 0.0 **** 0.06
20744 H 48.28206252901301 73.75115355691078 18.697341242816933 H 0.0 **** 0.06
20745 H 48.694476060772296 75.13462301046484 17.655777384706766 H 0.0 **** 0.06
20746 C 89.25611363831803 72.3797804140219 81.44468738835559 C 0.0 **** -0.24
20747 H 90.15390521010153 72.2246476330175 80.84517684101999 H 0.0 **** 0.06
20748 H 88.40926574553771 71.89424788736363 80.96083982962429 H 0.0 **** 0.06
20749 H 89.06142931419578 73.44874476683248 81.5347371814681 H 0.0 **** 0.06
20750 H 89.4037331985769 71.9530199391819 82.43673560702999 H 0.0 **** 0.06
20751 C 78.85088783243921 30.019429429439555 118.00597547876686 C 0.0 **** -0.24
20752 H 79.2283141091595 29.365884955841352 117.2197632223163 H 0.0 **** 0.06
20753 H 79.26801308703168 31.018682337984018 117.87971831282829 H 0.0 **** 0.06
20754 H 79.14206357190676 29.624307480113174 118.97914197696237 H 0.0 **** 0.06
20755 H 77.76300121066015 30.06997524368066 117.94551382180532 H 0.0 **** 0.06
20756 C 57.61376190344397 6.717771510958187 4.100504718030834 C 0.0 **** -0.24
20757 H 57.75443919619407 5.706234645556037 4.481698615150549 H 0.0 **** 0.06
20758 H 57.327628520645305 6.673042212504583 3.0494882072385963 H 0.0 **** 0.06
20759 H 58.54458315596405 7.276499477069365 4.200727430791773 H 0.0 **** 0.06
20760 H 56.82853082853559 7.214809379606663 4.670960039859409 H 0.0 **** 0.06
20761 C 117.39433033110153 115.26070366470884 44.731531596677485 C 0.0 **** -0.24
20762 H 116.69253495011431 115.3822172663939 45.5568063441074 H 0.0 **** 0.06
20763 H 118.30701788122741 115.81688765349573 44.94709957064481 H 0.0 **** 0.06
20764 H 116.94540742839767 115.63980547400215 43.814330055454306 H 0.0 **** 0.06
20765 H 117.6326492516757 114.20382855391033 44.61032178192842 H 0.0 **** 0.06
20766 C 26.567397973524123 78.18635518893473 88.73716867492001 C 0.0 **** -0.24
20767 H 25.75563698664945 78.18288121365443 89.46508678701065 H 0.0 **** 0.06
20768 H 27.518745399173184 78.3030216364724 89.25575974346387 H 0.0 **** 0.06
20769 H 26.427165241208172 79.01465826647157 88.04219059318615 H 0.0 **** 0.06
20770 H 26.564594437734286 77.24582134576256 88.18605530208586 H 0.0 **** 0.06
20771 C 73.05485567542134 73.38842751827448 23.137655311478426 C 0.0 **** -0.24
20772 H 73.0496094016065 72.50442998872916 23.774373056126592 H 0.0 **** 0.06
20773 H 73.02263917721166 73.08205149462957 22.091209118061727 H 0.0 **** 0.06
20774 H 73.96349083078832 73.96210873507363 23.3198577085856 H 0.0 **** 0.06
20775 H 72.18425030507872 74.00394207793194 23.363367084676554 H 0.0 **** 0.06
20776 C 28.864175313151918 87.93972801849648 64.29737600668619 C 0.0 **** -0.24
20777 H 29.014150560779797 88.76146524783209 63.59648435608557 H 0.0 **** 0.06
20778 H 29.759135286491585 87.81568405951663 64.90669482553568 H 0.0 **** 0.06
20779 H 28.671813854085315 87.02051226603456 63.74297070173924 H 0.0 **** 0.06
20780 H 28.013025582709815 88.16102141797685 64.94072352783496 H 0.0 **** 0.06
20781 C 73.7687392276706 94.46593851274076 119.7103135989004 C 0.0 **** -0.24
20782 H 74.37817909732142 93.98102654549405 118.94755731420649 H 0.0 **** 0.06
20783 H 73.83269146045507 93.89938666911337 120.63910302982626 H 0.0 **** 0.06
20784 H 72.73192977568353 94.50390815436936 119.37625047778106 H 0.0 **** 0.06
20785 H 74.13454576228898 95.47961629178127 119.87605039433086 H 0.0 **** 0.06
20786 C 13.258111632255577 95.94369107004303 106.03231911980437 C 0.0 **** -0.24
20787 H 13.531055100433463 96.17810697941383 107.06197383571907 H 0.0 **** 0.06
20788 H 12.30117893075672 95.42264415750839 106.02029469841821 H 0.0 **** 0.06
20789 H 14.024929535663915 95.30742993456755 105.58947510331357 H 0.0 **** 0.06
20790 H 13.176948077263802 96.86702415493983 105.45927447314514 H 0.0 **** 0.06
20791 C 42.85820550985443 82.49785516271422 5.8359115587793156 C 0.0 **** -0.24
20792 H 43.570333767596004 83.12961108596262 5.304512901324557 H 0.0 **** 0.06
20793 H 42.52658995345931 81.69293250892643 5.179287312580357 H 0.0 **** 0.06
20794 H 42.0001500995953 83.09571535673666 6.141840904802564 H 0.0 **** 0.06
20795 H 43.33819754190617 82.0731437746462 6.71797653997811 H 0.0 **** 0.06
20796 C 32.66834678833793 74.23197937455721 78.068528396964 C 0.0 **** -0.24
20797 H 33.26811061369071 75.13906122617226 78.14813753910612 H 0.0 **** 0.06
20798 H 32.87742842171572 73.74152220035062 77.1176076011179 H 0.0 **** 0.06
20799 H 31.61101830019132 74.49086747043758 78.11982266530623 H 0.0 **** 0.06
20800 H 32.91797284732516 73.55830808366592 78.88799560590213 H 0.0 **** 0.06
20801 C 18.167713419339407 97.47573208760551 115.3815442660012 C 0.0 **** -0.24
20802 H 18.521678553805543 98.42143396779164 114.97051340269586 H 0.0 **** 0.06
20803 H 17.694257925329794 97.65463274584945 116.34711931647345 H 0.0 **** 0.06
20804 H 19.011490139393672 96.7965663169048 115.5100880248842 H 0.0 **** 0.06
20805 H 17.444254362585212 97.03078964047204 114.69818935690802 H 0.0 **** 0.06
20806 C 16.42193478518118 87.81220331071557 105.01896992744722 C 0.0 **** -0.24
20807 H 15.921765485647825 88.67043924112082 105.46742444362309 H 0.0 **** 0.06
20808 H 17.09831967511036 88.15555462670352 104.23545532976141 H 0.0 **** 0.06
20809 H 15.677671632979468 87.1412288243933 104.58998238755385 H 0.0 **** 0.06
20810 H 16.9908126462135 87.28302348314207 105.78352496241223 H 0.0 **** 0.06
20811 C 20.297139798776122 24.4607551342566 83.32279766860466 C 0.0 **** -0.24
20812 H 20.304365911564147 25.549622404137097 83.3680695049857 H 0.0 **** 0.06
20813 H 19.314155872214585 24.09154471297009 83.61421650743605 H 0.0 **** 0.06
20814 H 21.051465962934245 24.064299599037412 84.00358312446446 H 0.0 **** 0.06
20815 H 20.520602111298516 24.137105725663503 82.30614366097274 H 0.0 **** 0.06
20816 C 60.09570023090335 31.988903689544372 104.26384467678997 C 0.0 **** -0.24
20817 H 60.249132818552795 32.55762182525706 105.18083530754163 H 0.0 **** 0.06
20818 H 60.987048490537035 32.056727370924705 103.64026394630233 H 0.0 **** 0.06
20819 H 59.241190578615104 32.396344059901395 103.72266323051625 H 0.0 **** 0.06
20820 H 59.90335160244739 30.94532414570284 104.51233900662496 H 0.0 **** 0.06
20821 C 31.216738041409315 50.47219065473635 117.58518817763502 C 0.0 **** -0.24
20822 H 31.634400038411798 50.78945033490721 118.54076834979988 H 0.0 **** 0.06
20823 H 31.968797731400997 50.58637050916986 116.80368004625657 H 0.0 **** 0.06
20824 H 30.347898851376385 51.08583548766544 117.34660233980745 H 0.0 **** 0.06
20825 H 30.916115052814092 49.42614208238103 117.64964703750162 H 0.0 **** 0.06
20826 C 3.0149086358709756 47.331789184111585 113.44784202777869 C 0.0 **** -0.24
20827 H 2.609559696427704 46.45304279800828 113.9494900478255 H 0.0 **** 0.06
20828 H 3.8904430362556006 47.044729154967996 112.86502062326893 H 0.0 **** 0.06
20829 H 3.3016570890217984 48.07462192417151 114.19170929575212 H 0.0 **** 0.06
20830 H 2.258829766622638 47.75306271197181 112.7857634587221 H 0.0 **** 0.06
20831 C 94.39498166181293 116.68511435579997 123.74921424312778 C 0.0 **** -0.24
20832 H 95.17988834495651 117.13019403880337 124.36005320594838 H 0.0 **** 0.06
20833 H 94.11617126401748 115.71630613611536 124.16566735138757 H 0.0 **** 0.06
20834 H 94.75944396301199 116.5517434188834 122.73033782035031 H 0.0 **** 0.06
20835 H 93.52436496058512 117.34131995800246 123.74035399361384 H 0.0 **** 0.06
20836 C 15.689610473298817 45.534655402688344 66.56232134352058 C 0.0 **** -0.24
20837 H 14.656200238873993 45.839666322172064 66.72526090928494 H 0.0 **** 0.06
20838 H 15.751486976606376 44.44583229299232 66.57082503357003 H 0.0 **** 0.06
20839 H 16.31745643100181 45.94103561706734 67.35409225847968 H 0.0 **** 0.06
20840 H 16.031455723485863 45.91004725093754 65.597905727696 H 0.0 **** 0.06
20841 C 106.06504805804042 112.17910341174768 53.666069946229356 C 0.0 **** -0.24
20842 H 106.4838619737693 111.82804016044655 54.60909178901457 H 0.0 **** 0.06
20843 H 105.45650674581442 111.39047999192546 53.223080893542814 H 0.0 **** 0.06
20844 H 106.87497508997086 112.43956534731129 52.984226471571816 H 0.0 **** 0.06
20845 H 105.4469350244276 113.05753950290787 53.84803683889612 H 0.0 **** 0.06
20846 C 15.339496338627555 97.95212337213194 36.05749923638402 C 0.0 **** -0.24
20847 H 15.503801912900542 98.07903943676959 37.12755049612363 H 0.0 **** 0.06
20848 H 16.285671533158336 98.06800005551554 35.52914822811019 H 0.0 **** 0.06
20849 H 14.632698704165364 98.70324151987141 35.706895097753915 H 0.0 **** 0.06
20850 H 14.937014191563435 96.95661270946357 35.867816876406806 H 0.0 **** 0.06
20851 C 64.8894495168786 79.73426617833827 64.32890608759104 C 0.0 **** -0.24
20852 H 64.1564830465868 79.58737793956367 65.12265966803238 H 0.0 **** 0.06
20853 H 65.88613915242983 79.80453563082749 64.76354804983197 H 0.0 **** 0.06
20854 H 64.66158123316362 80.65305115297465 63.78925075254489 H 0.0 **** 0.06
20855 H 64.85212276790024 78.88974518775365 63.639628346991515 H 0.0 **** 0.06
20856 C 72.9334376101331 62.173651581233 68.73894802583504 C 0.0 **** -0.24
20857 H 73.56573840271383 63.061290031289786 68.72130171731294 H 0.0 **** 0.06
20858 H 72.00834521723934 62.37626053568613 68.19889487588722 H 0.0 **** 0.06
20859 H 72.7025116552883 61.912664510960326 69.77165158915273 H 0.0 **** 0.06
20860 H 73.45784069459643 61.34509382025885 68.2629258111557 H 0.0 **** 0.06
20861 C 106.11295304376503 67.08645004882234 65.29670523356509 C 0.0 **** -0.24
20862 H 106.15834206640713 67.58648177732101 66.26392071478784 H 0.0 **** 0.06
20863 H 105.10620307549036 66.70195547882324 65.13343205536168 H 0.0 **** 0.06
20864 H 106.8241485401071 66.2601502208363 65.28120344988918 H 0.0 **** 0.06
20865 H 106.364052980411 67.79704173740888 64.5085770482377 H 0.0 **** 0.06
20866 C 60.836000743373376 9.08795368390605 75.78420243620843 C 0.0 **** -0.24
20867 H 61.19664301155875 9.122678314527576 74.75663929426912 H 0.0 **** 0.06
20868 H 61.37094890964019 8.31137921555856 76.3319234622387 H 0.0 **** 0.06
20869 H 59.769400816861264 8.866553538658565 75.78822769237263 H 0.0 **** 0.06
20870 H 61.00801049175287 10.05287123376641 76.2615089367543 H 0.0 **** 0.06
20871 C 59.676557070675244 104.54611825497253 98.75346753156875 C 0.0 **** -0.24
20872 H 59.73543246742122 103.53604704252723 99.16073724524307 H 0.0 **** 0.06
20873 H 59.355962856687256 104.49972124743923 97.71220078767146 H 0.0 **** 0.06
20874 H 60.657663921220774 105.01839204916885 98.81196170380531 H 0.0 **** 0.06
20875 H 58.95789078055577 105.1283048150892 99.32963959084243 H 0.0 **** 0.06
20876 C 58.47209509343986 64.23259029947505 109.95054611679164 C 0.0 **** -0.24
20877 H 57.97053732688232 63.804695443532154 110.81930533287698 H 0.0 **** 0.06
20878 H 57.81846479244052 64.96453917595224 109.47701160758515 H 0.0 **** 0.06
20879 H 58.70666587507213 63.439663661472224 109.24060415818624 H 0.0 **** 0.06
20880 H 59.39459119993933 64.71965735757581 110.26794865050508 H 0.0 **** 0.06
20881 C 33.95835613312079 116.57262356155746 93.11994616308915 C 0.0 **** -0.24
20882 H 33.364671891249714 116.2799008617909 92.25317155507825 H 0.0 **** 0.06
20883 H 34.46977386798761 117.51125579014109 92.90864046003996 H 0.0 **** 0.06
20884 H 34.69385922831725 115.7969564543468 93.33361986847494 H 0.0 **** 0.06
20885 H 33.30338718451634 116.70024110706413 93.9812835509072 H 0.0 **** 0.06
20886 C 72.34809356073586 32.84148841774234 102.47752823428468 C 0.0 **** -0.24
20887 H 71.61088267424566 33.02048824605285 103.26002926475849 H 0.0 **** 0.06
20888 H 73.32273850866625 33.19960843015326 102.80711269974952 H 0.0 **** 0.06
20889 H 72.05200822183562 33.37218911039264 101.57214046980272 H 0.0 **** 0.06
20890 H 72.40482596105012 31.772566223060153 102.26977951538814 H 0.0 **** 0.06
20891 C 82.14744586611323 111.5579879553294 25.956901776808934 C 0.0 **** -0.24
20892 H 82.0108668054888 111.85063823940347 24.91574535756031 H 0.0 **** 0.06
20893 H 82.81852489187301 112.26352292645188 26.447565708993857 H 0.0 **** 0.06
20894 H 82.5767537222977 110.55714885872032 25.999850114429904 H 0.0 **** 0.06
20895 H 81.18234640931624 111.56083349379377 26.46498909959535 H 0.0 **** 0.06
20896 C 119.53192613489594 24.494916166804437 123.07970476569331 C 0.0 **** -0.24
20897 H 120.58515931596526 24.652636714315356 122.84965531790205 H 0.0 **** 0.06
20898 H 118.9266475493906 24.767501073019048 122.21504701816016 H 0.0 **** 0.06
20899 H 119.24967562396142 25.114424172524444 123.93146836716988 H 0.0 **** 0.06
20900 H 119.36706525275429 23.445261834016875 123.32316191761467 H 0.0 **** 0.06
20901 C 74.49808014885559 67.6711902795168 3.6177602547435868 C 0.0 **** -0.24
20902 H 73.85242042637532 67.53849689829508 2.749701102673555 H 0.0 **** 0.06
20903 H 75.21739941430405 66.85292140184086 3.6624099152325584 H 0.0 **** 0.06
20904 H 73.89221868771762 67.67330978353002 4.523900480043835 H 0.0 **** 0.06
20905 H 75.02972577073632 68.618560292431 3.533441492798545 H 0.0 **** 0.06
20906 C 75.26086391516023 79.02408499540002 6.8798985936502675 C 0.0 **** -0.24
20907 H 74.29613669557587 79.52713267000277 6.810600972128725 H 0.0 **** 0.06
20908 H 75.98910810500676 79.54925383963723 6.260586978124792 H 0.0 **** 0.06
20909 H 75.1606636573096 77.9959861316951 6.532129511101104 H 0.0 **** 0.06
20910 H 75.59762481472806 79.02634286007296 7.916869537718867 H 0.0 **** 0.06
20911 C 81.07094636991145 47.10932249677613 117.78369376047078 C 0.0 **** -0.24
20912 H 81.62708689182665 46.5086384086005 118.50403472247744 H 0.0 **** 0.06
20913 H 80.94747584930988 48.11971412530809 118.17298988472668 H 0.0 **** 0.06
20914 H 80.09158208298952 46.661278217633104 117.61620759296972 H 0.0 **** 0.06
20915 H 81.6195261108814 47.14690138193328 116.84291070050948 H 0.0 **** 0.06
20916 C 20.941022336993512 40.053290621830456 109.97186163534109 C 0.0 **** -0.24
20917 H 20.828631484791345 41.1153898198819 109.75056007532623 H 0.0 **** 0.06
20918 H 20.70395963602114 39.470215997197556 109.08191221577088 H 0.0 **** 0.06
20919 H 20.261512360349883 39.777453021840756 110.77841264434815 H 0.0 **** 0.06
20920 H 21.967793146597387 39.85232392725612 110.27707432036976 H 0.0 **** 0.06
20921 C 57.686720155908006 67.79163807073049 85.81420103361901 C 0.0 **** -0.24
20922 H 58.34234268051421 67.04404011788198 85.3676272805778 H 0.0 **** 0.06
20923 H 58.226805374019705 68.73283976211103 85.9194486875545 H 0.0 **** 0.06
20924 H 57.360330025493056 67.44767171050317 86.79591349645699 H 0.0 **** 0.06
20925 H 56.81682626864779 67.94037543117942 85.17365159344388 H 0.0 **** 0.06
20926 C 95.88374547106542 30.06307616458635 25.21533014235058 C 0.0 **** -0.24
20927 H 96.063613056365 29.42901765938724 24.347441241280222 H 0.0 **** 0.06
20928 H 96.83897546442836 30.373809696069458 25.641268124633655 H 0.0 **** 0.06
20929 H 95.31775231515371 29.505301332882283 25.961463974599525 H 0.0 **** 0.06
20930 H 95.31719449837459 30.943569862662883 24.912202196030904 H 0.0 **** 0.06
20931 C 47.717670518549156 38.21536664265369 33.6420991012003 C 0.0 **** -0.24
20932 H 47.710085243314815 39.14894324008739 34.204860968469916 H 0.0 **** 0.06
20933 H 47.59651593481315 38.43194171578952 32.57971798971187 H 0.0 **** 0.06
20934 H 46.898127527529695 37.58075032062675 33.98017327629782 H 0.0 **** 0.06
20935 H 48.66562902779518 37.70178298890934 33.80260207694073 H 0.0 **** 0.06
20936 C 10.253787820973209 119.06646207972018 93.46880270811668 C 0.0 **** -0.24
20937 H 9.942131799516513 120.11147867427022 93.45661194479419 H 0.0 **** 0.06
20938 H 10.92149034475079 118.87714324772594 92.6278696156334 H 0.0 **** 0.06
20939 H 9.37628782741282 118.42544904580716 93.38965279560365 H 0.0 **** 0.06
20940 H 10.775339050657518 118.85516361260537 94.40231113313638 H 0.0 **** 0.06
20941 C 73.62024673669727 69.46467809169015 95.56475492209313 C 0.0 **** -0.24
20942 H 73.33582134101674 68.8559175544781 94.70723906745252 H 0.0 **** 0.06
20943 H 73.97575510735608 68.81817291469783 96.36815871427382 H 0.0 **** 0.06
20944 H 72.7561011787037 70.03257826955479 95.90953681151024 H 0.0 **** 0.06
20945 H 74.41453718938122 70.15274505024057 95.2740638770656 H 0.0 **** 0.06
20946 C 41.63005238527492 15.690508977542024 19.53826549832928 C 0.0 **** -0.24
20947 H 40.70351456541417 15.371707600093927 20.01643711202871 H 0.0 **** 0.06
20948 H 42.477561228547245 15.39317902660613 20.15504529195539 H 0.0 **** 0.06
20949 H 41.62543851787808 16.774220368940853 19.42394573515884 H 0.0 **** 0.06
20950 H 41.71032662609983 15.221468175271035 18.556913087702554 H 0.0 **** 0.06
20951 C 33.10081707931246 46.093212518083334 1.0540922085271305 C 0.0 **** -0.24
20952 H 33.29650133950756 45.13690048673678 0.5680698566741924 H 0.0 **** 0.06
20953 H 32.59839373994586 45.92020783195633 2.006579979376731 H 0.0 **** 0.06
20954 H 32.46384714654363 46.70209941111145 0.41315327303143157 H 0.0 **** 0.06
20955 H 34.043356213583905 46.61202240693436 1.2284796471276902 H 0.0 **** 0.06
20956 C 71.66889307907773 10.16563680967062 45.88128162428685 C 0.0 **** -0.24
20957 H 72.72581157775774 10.392270838820167 45.74406658763268 H 0.0 **** 0.06
20958 H 71.3119938788364 9.575006826478607 45.03833452036418 H 0.0 **** 0.06
20959 H 71.10321729157616 11.09562830019324 45.93965497107672 H 0.0 **** 0.06
20960 H 71.5355111516672 9.60104138362792 46.804524830671006 H 0.0 **** 0.06
20961 C 112.00949772142569 35.160650427693824 114.30308903488775 C 0.0 **** -0.24
20962 H 112.62320509613113 35.69382334281464 113.5765832599405 H 0.0 **** 0.06
20963 H 111.3734503199844 34.44322793052602 113.78365335807898 H 0.0 **** 0.06
20964 H 111.38863311741125 35.8725150123457 114.84559118187862 H 0.0 **** 0.06
20965 H 112.65564738365795 34.632445821731835 115.00553854488206 H 0.0 **** 0.06
20966 C 76.32918426280537 81.26104225588871 25.35514690852 C 0.0 **** -0.24
20967 H 76.94682432899246 80.88346384380264 26.17042479469928 H 0.0 **** 0.06
20968 H 76.19706794340128 82.33662026419803 25.46717756220064 H 0.0 **** 0.06
20969 H 75.35651297669816 80.77046894140884 25.37908553134622 H 0.0 **** 0.06
20970 H 76.81779238923777 81.05173391512267 24.4033297801532 H 0.0 **** 0.06
20971 C 6.609957565586271 95.76746343202811 58.4211496887372 C 0.0 **** -0.24
20972 H 6.44044972946719 95.00426716582923 57.66225627910943 H 0.0 **** 0.06
20973 H 6.9260593141206925 95.29285765236438 59.35017592842921 H 0.0 **** 0.06
20974 H 5.686371252933512 96.32137936036285 58.592521312654654 H 0.0 **** 0.06
20975 H 7.385910321952167 96.45237839614396 58.08057301500416 H 0.0 **** 0.06
20976 C 86.49812535302613 16.718951076737312 99.8420251940164 C 0.0 **** -0.24
20977 H 87.4851979546965 16.25740232599199 99.83530966755465 H 0.0 **** 0.06
20978 H 86.60441473235161 17.79993862474356 99.93316353860895 H 0.0 **** 0.06
20979 H 85.92483432286943 16.337362051351022 100.68652675282635 H 0.0 **** 0.06
20980 H 85.9798339657414 16.480903006195092 98.91399190948908 H 0.0 **** 0.06
20981 C 117.35911531566455 116.69855722193896 34.57344839494061 C 0.0 **** -0.24
20982 H 116.85593921054684 117.18162906672443 35.41145385098673 H 0.0 **** 0.06
20983 H 116.67275538108512 116.6281848593605 33.72934739281715 H 0.0 **** 0.06
20984 H 117.67752925878924 115.69895837508022 34.86870319155423 H 0.0 **** 0.06
20985 H 118.23062115458288 117.28762531796872 34.28536137001748 H 0.0 **** 0.06
20986 C 94.62293125559833 24.62892465582786 8.391658794719206 C 0.0 **** -0.24
20987 H 94.4007383338396 25.62063621079912 7.997387041300641 H 0.0 **** 0.06
20988 H 95.21624913720623 24.074751142606686 7.664926195142584 H 0.0 **** 0.06
20989 H 93.69068456390559 24.09726775948829 8.58306875368038 H 0.0 **** 0.06
20990 H 95.18340006693595 24.725113577262846 9.32179057705585 H 0.0 **** 0.06
20991 C 43.10965857741468 115.14331205292123 20.932705180818985 C 0.0 **** -0.24
20992 H 43.850245176639845 115.75528892787588 21.447721207020784 H 0.0 **** 0.06
20993 H 42.40009543392458 115.79077539955426 20.416282741552095 H 0.0 **** 0.06
20994 H 42.57885597207783 114.52857636035354 21.659564398770193 H 0.0 **** 0.06
20995 H 43.609206426797 114.5009104983825 20.20805433010254 H 0.0 **** 0.06
20996 C 65.66598204531866 101.21113731362948 117.14684162433666 C 0.0 **** -0.24
20997 H 65.76033124717256 100.94501411797359 116.09441521921167 H 0.0 **** 0.06
20998 H 64.64642992418192 101.01927394587483 117.48064037649364 H 0.0 **** 0.06
20999 H 65.89795545356668 102.26867891226095 117.27534783117484 H 0.0 **** 0.06
21000 H 66.36028654150445 100.61290217667982 117.73664301367334 H 0.0 **** 0.06
21001 C 56.04986778563217 88.47698876264533 45.66551603259479 C 0.0 **** -0.24
21002 H 56.04838192407526 87.63435508666721 46.35790036124599 H 0.0 **** 0.06
21003 H 56.86829384440588 89.15172659046877 45.917211037186426 H 0.0 **** 0.06
21004 H 55.10247125484567 89.01044753310569 45.740896704062436 H 0.0 **** 0.06
21005 H 56.181055224877696 88.109754386627 44.64769066812572 H 0.0 **** 0.06
21006 C 101.35255163197917 5.661902235483751 47.747901346329854 C 0.0 **** -0.24
21007 H 101.6978926088577 6.540262111783022 48.292907978133634 H 0.0 **** 0.06
21008 H 102.12552257429918 4.892932511241838 47.77280642967219 H 0.0 **** 0.06
21009 H 101.14491650899194 5.934472451292578 46.71272846811121 H 0.0 **** 0.06
21010 H 100.44394179540643 5.279849476976949 48.21185122622804 H 0.0 **** 0.06
21011 C 13.818208039686724 47.74676164998186 114.852583775845 C 0.0 **** -0.24
21012 H 13.439696210764666 47.0339212842905 115.5844799849472 H 0.0 **** 0.06
21013 H 14.564552056943242 47.26103972852934 114.2237932365241 H 0.0 **** 0.06
21014 H 14.273142645742666 48.59157506305394 115.37086224532888 H 0.0 **** 0.06
21015 H 12.995829766067232 48.102559086459564 114.23200754239062 H 0.0 **** 0.06
21016 C 37.35716714281995 18.998079951442122 110.08718127446826 C 0.0 **** -0.24
21017 H 37.07837723374476 19.087890091887687 111.1372317723314 H 0.0 **** 0.06
21018 H 38.287118446229925 18.434070878930868 110.0060571643501 H 0.0 **** 0.06
21019 H 37.49746448542405 19.99170212996188 109.66175875385107 H 0.0 **** 0.06
21020 H 36.567908596397615 18.47819739064846 109.54465132405687 H 0.0 **** 0.06
21021 C 105.5691643773331 10.075407312769599 100.49274905636409 C 0.0 **** -0.24
21022 H 106.27787168893991 10.69030681860849 99.93792092389162 H 0.0 **** 0.06
21023 H 105.51588976993332 9.084857610671719 100.03968187041161 H 0.0 **** 0.06
21024 H 104.58563935994866 10.54190126721221 100.46526254062135 H 0.0 **** 0.06
21025 H 105.90041423734536 9.984050804091765 101.52680136866175 H 0.0 **** 0.06
21026 C 96.93611309945462 9.262850870716193 42.45381590668535 C 0.0 **** -0.24
21027 H 95.92427292351894 8.868360636135378 42.541266269719074 H 0.0 **** 0.06
21028 H 96.9187467389323 10.178963582925007 41.86294735395293 H 0.0 **** 0.06
21029 H 97.57314507383185 8.526061933633343 41.96354038921507 H 0.0 **** 0.06
21030 H 97.32836985484082 9.479004905285251 43.44764375287971 H 0.0 **** 0.06
21031 C 2.9884511183513247 14.058174893096691 30.153792696831374 C 0.0 **** -0.24
21032 H 3.8678882898563067 13.419891208193874 30.072227556948576 H 0.0 **** 0.06
21033 H 2.26625084512885 13.595359980870825 30.828132342901995 H 0.0 **** 0.06
21034 H 2.537367272214235 14.182867549729053 29.16931627840586 H 0.0 **** 0.06
21035 H 3.2806376243732664 15.031343277440527 30.546367485815495 H 0.0 **** 0.06
21036 C 98.69955053067407 103.24485302931075 108.60361468395263 C 0.0 **** -0.24
21037 H 97.74226250327465 103.13060020446827 108.09546253288454 H 0.0 **** 0.06
21038 H 98.60288700557378 103.98468319819906 109.3986902970936 H 0.0 **** 0.06
21039 H 99.45313930217968 103.57573717157698 107.8879810971963 H 0.0 **** 0.06
21040 H 99.00037659360666 102.28906259331936 109.0311693136943 H 0.0 **** 0.06
21041 C 45.01136703754481 8.42528270596199 43.18390620689573 C 0.0 **** -0.24
21042 H 44.07601155078654 8.090052917612695 42.73502554918562 H 0.0 **** 0.06
21043 H 44.7940534546628 9.068566839077533 44.03682476085149 H 0.0 **** 0.06
21044 H 45.59047147237032 8.98012521301527 42.44669695760348 H 0.0 **** 0.06
21045 H 45.58297127199188 7.559621932885904 43.51830973963459 H 0.0 **** 0.06
21046 C 65.29675642847226 100.75607988156668 17.690415569798006 C 0.0 **** -0.24
21047 H 64.67775878824207 101.32019928848939 16.9932858226357 H 0.0 **** 0.06
21048 H 65.82999494111124 101.44685848621708 18.343872789288753 H 0.0 **** 0.06
21049 H 66.01574465939086 100.15536073015619 17.13222366658914 H 0.0 **** 0.06
21050 H 64.6651462822991 100.10205949171473 18.29044855681201 H 0.0 **** 0.06
21051 C 20.093142833978817 46.519556721672615 84.24362336953422 C 0.0 **** -0.24
21052 H 19.864863502974686 46.78332521046917 85.27658971492767 H 0.0 **** 0.06
21053 H 21.163358785363826 46.34170621074762 84.1420966378897 H 0.0 **** 0.06
21054 H 19.795911493195504 47.33669971861616 83.58618320489197 H 0.0 **** 0.06
21055 H 19.547118603799007 45.61650438249674 83.97074662059171 H 0.0 **** 0.06
21056 C 50.6504871559192 77.91394237329156 43.388620248274236 C 0.0 **** -0.24
21057 H 49.611486494551244 78.21156800372219 43.24524540133166 H 0.0 **** 0.06
21058 H 51.01789502709655 78.32281553072727 44.33018911850299 H 0.0 **** 0.06
21059 H 51.25481239263666 78.29506910278876 42.566105158957015 H 0.0 **** 0.06
21060 H 50.7169441169199 76.82648764896116 43.41476174943981 H 0.0 **** 0.06
21061 C 17.829507695148152 26.455465929955892 95.89445351115107 C 0.0 **** -0.24
21062 H 18.5107115685056 27.064280000156685 95.30059378171428 H 0.0 **** 0.06
21063 H 18.15312632041065 26.460592392794524 96.93563286637949 H 0.0 **** 0.06
21064 H 17.832451282914292 25.433550434535135 95.51694497550164 H 0.0 **** 0.06
21065 H 16.821805346390136 26.865520688468223 95.8259349794444 H 0.0 **** 0.06
21066 C 121.90051582212536 120.26972913550497 90.51811705407349 C 0.0 **** -0.24
21067 H 121.93974857817918 121.07934490049072 89.7888894847517 H 0.0 **** 0.06
21068 H 122.39641206532846 119.38961056569946 90.10895215175046 H 0.0 **** 0.06
21069 H 120.8605574031545 120.03079219961026 90.7395426835921 H 0.0 **** 0.06
21070 H 122.40527499180965 120.57943579140368 91.43226889172226 H 0.0 **** 0.06
21071 C 48.02643653822816 111.05616159276883 38.34107886431326 C 0.0 **** -0.24
21072 H 48.011181374031175 111.93761134324589 37.699815002337175 H 0.0 **** 0.06
21073 H 47.73387472877363 110.17988749156348 37.76183017747337 H 0.0 **** 0.06
21074 H 47.329026752668675 111.19553133455103 39.16702399996166 H 0.0 **** 0.06
21075 H 49.03247400274151 110.9120418484337 38.73604831654234 H 0.0 **** 0.06
21076 C 11.453443971929786 52.85489122025632 35.450822217250675 C 0.0 **** -0.24
21077 H 12.332522304859154 52.50071524571803 34.91203339711808 H 0.0 **** 0.06
21078 H 11.590537569095687 53.90333101465234 35.71864331143149 H 0.0 **** 0.06
21079 H 11.317934648624231 52.26231579282529 36.35538801040565 H 0.0 **** 0.06
21080 H 10.573667195876055 52.75387099109861 34.815282725345924 H 0.0 **** 0.06
21081 C 3.169656764951622 35.34721896590577 42.16865367893162 C 0.0 **** -0.24
21082 H 3.8810778025041017 35.97443192270464 41.630675272345286 H 0.0 **** 0.06
21083 H 2.7168346585153955 34.63608652188378 41.478433827327926 H 0.0 **** 0.06
21084 H 2.392793370496399 35.973742136927456 42.60752577797121 H 0.0 **** 0.06
21085 H 3.6890446599209827 34.806436273240536 42.960082782512465 H 0.0 **** 0.06
21086 C 54.218072135482345 97.70057842021896 35.98493538092606 C 0.0 **** -0.24
21087 H 55.20967634213696 98.1465002813921 36.06161975319765 H 0.0 **** 0.06
21088 H 53.67349449079498 97.86152139100847 36.91540153464581 H 0.0 **** 0.06
21089 H 54.31486506761203 96.63044379326357 35.80054248529575 H 0.0 **** 0.06
21090 H 53.674599218459804 98.16296393797518 35.16112987397531 H 0.0 **** 0.06
21091 C 2.0667729966228308 91.6940859942488 42.98572945120582 C 0.0 **** -0.24
21092 H 2.9669444145866493 91.71381408336293 43.59844049333727 H 0.0 **** 0.06
21093 H 1.6706906235590253 92.70476148445859 42.887859615339195 H 0.0 **** 0.06
21094 H 1.3191321939619058 91.0555797848325 43.458203634188926 H 0.0 **** 0.06
21095 H 2.3080330286981763 91.30027530406298 41.99811795132183 H 0.0 **** 0.06
21096 C 6.938139429588702 78.4789874284586 71.22003391824377 C 0.0 **** -0.24
21097 H 7.564057812563831 77.71747986156075 70.75482631987653 H 0.0 **** 0.06
21098 H 6.388748532431677 79.01833010360036 70.44762994769876 H 0.0 **** 0.06
21099 H 7.565667148614452 79.17672822187654 71.77368670098276 H 0.0 **** 0.06
21100 H 6.234216141149602 78.00295660715315 71.90232662907302 H 0.0 **** 0.06
21101 C 118.26266370313604 65.05804368179588 20.95291056361205 C 0.0 **** -0.24
21102 H 117.8082238210903 64.58822879685135 20.081158864001992 H 0.0 **** 0.06
21103 H 118.46134162013232 66.10799014253865 20.735951428276167 H 0.0 **** 0.06
21104 H 119.19866838027988 64.55248457331322 21.191124663529763 H 0.0 **** 0.06
21105 H 117.58313176586145 64.98473240021411 21.801431309914648 H 0.0 **** 0.06
21106 C 108.12841013670268 25.308035743243977 16.400815551307915 C 0.0 **** -0.24
21107 H 108.74052693790468 24.918239147289853 17.21432914077343 H 0.0 **** 0.06
21108 H 108.3531485917412 26.3641083089974 16.25180526877557 H 0.0 **** 0.06
21109 H 107.07411896323633 25.191530061614458 16.65298669650656 H 0.0 **** 0.06
21110 H 108.34609221225186 24.757229147201087 15.486107247744144 H 0.0 **** 0.06
21111 C 79.54149404349963 16.983893346599814 6.747779403965836 C 0.0 **** -0.24
21112 H 78.98605761938038 17.92205421084296 6.7623848727726745 H 0.0 **** 0.06
21113 H 80.24121539758164 16.988692391090638 5.911941673778763 H 0.0 **** 0.06
21114 H 78.84584223387269 16.152710439965375 6.634995490498337 H 0.0 **** 0.06
21115 H 80.09129443264585 16.873710102319933 7.681716133311653 H 0.0 **** 0.06
21116 C 54.04517384006461 33.57616278337386 39.04351226526521 C 0.0 **** -0.24
21117 H 54.87710885108898 34.268961912772994 39.17473450166125 H 0.0 **** 0.06
21118 H 54.053111893349225 32.84222826272742 39.850456444988595 H 0.0 **** 0.06
21119 H 54.14610931642541 33.06567793759476 38.08607927831804 H 0.0 **** 0.06
21120 H 53.10602832847728 34.12918402522874 39.06390659559102 H 0.0 **** 0.06
21121 C 24.73473844538234 73.14651422002999 44.42056996159158 C 0.0 **** -0.24
21122 H 24.27817608884601 72.43645424150594 45.110305681189914 H 0.0 **** 0.06
21123 H 24.549274889744126 72.82781967358227 43.394379524887256 H 0.0 **** 0.06
21124 H 25.80895296551246 73.18906918181341 44.600372480080125 H 0.0 **** 0.06
21125 H 24.3014968430262 74.13438327651517 44.577544975044816 H 0.0 **** 0.06
21126 C 2.6596031096273123 39.94560194505661 62.38197652217144 C 0.0 **** -0.24
21127 H 3.6954800972058024 39.71678220520761 62.63180463276626 H 0.0 **** 0.06
21128 H 1.9980436495300182 39.24995690468401 62.89925867200424 H 0.0 **** 0.06
21129 H 2.5170511381313645 39.84979199945677 61.304959730326516 H 0.0 **** 0.06
21130 H 2.4283539405919896 40.96488591472731 62.689703129619716 H 0.0 **** 0.06
21131 C 90.6279159366664 15.694493365864872 89.85031333657733 C 0.0 **** -0.24
21132 H 90.21953564424956 16.208301152723635 88.97953216321662 H 0.0 **** 0.06
21133 H 90.55840828622257 16.34635614363387 90.7216894686307 H 0.0 **** 0.06
21134 H 91.67185303238472 15.44247848910328 89.66671461286683 H 0.0 **** 0.06
21135 H 90.0602974766972 14.782571126463637 90.03258720204569 H 0.0 **** 0.06
21136 C 113.0435714783054 56.34135879202975 11.093846981380523 C 0.0 **** -0.24
21137 H 111.96202343559982 56.205612883798864 11.094615490155832 H 0.0 **** 0.06
21138 H 113.4284874507014 56.18036884501984 10.086958890549113 H 0.0 **** 0.06
21139 H 113.49943140888419 55.62540479130476 11.777498414635033 H 0.0 **** 0.06
21140 H 113.28227796185024 57.35450939609754 11.417036963837461 H 0.0 **** 0.06
21141 C 30.898343767796206 60.5458661748678 94.82007488038329 C 0.0 **** -0.24
21142 H 31.462350672415823 61.44138565344065 94.55624374891477 H 0.0 **** 0.06
21143 H 30.876143075379986 59.86706058371192 93.96785262283612 H 0.0 **** 0.06
21144 H 29.879638733121425 60.82560629988882 95.0887665765693 H 0.0 **** 0.06
21145 H 31.375403404597336 60.052112496188045 95.66613933809185 H 0.0 **** 0.06
21146 C 34.41613212491106 53.4917493447696 55.36225400786647 C 0.0 **** -0.24
21147 H 33.67872149188938 52.987813834258674 54.73757788521283 H 0.0 **** 0.06
21148 H 34.70804541455635 52.832824714862184 56.180730479515745 H 0.0 **** 0.06
21149 H 33.984307998493506 54.40596567470432 55.76744290694316 H 0.0 **** 0.06
21150 H 35.29259379674451 53.73752337287121 54.76310482492818 H 0.0 **** 0.06
21151 C 77.84290606134971 122.72604613023132 39.85198059051103 C 0.0 **** -0.24
21152 H 78.48927271857929 123.19670930603453 40.593311871674786 H 0.0 **** 0.06
21153 H 78.33372253508736 122.74494950405334 38.87815584316425 H 0.0 **** 0.06
21154 H 76.89993715363181 123.26963631773619 39.795659716943334 H 0.0 **** 0.06
21155 H 77.64934879073218 121.6930501878564 40.142036971136235 H 0.0 **** 0.06
21156 C 55.65884171909153 19.71554691197288 114.78877310159798 C 0.0 **** -0.24
21157 H 54.86931659494542 19.332250426630637 114.14115000564014 H 0.0 **** 0.06
21158 H 55.72268012495272 20.79838902367206 114.68028189597027 H 0.0 **** 0.06
21159 H 56.6103448844986 19.264619288256768 114.50849526492694 H 0.0 **** 0.06
21160 H 55.430597137549626 19.46664394669199 115.82501265783074 H 0.0 **** 0.06
21161 C 35.364208516324425 41.99191332497912 75.96783710075285 C 0.0 **** -0.24
21162 H 36.07103362438414 42.46366851086688 76.64912259294334 H 0.0 **** 0.06
21163 H 34.35160492657178 42.11542164185606 76.35211614369445 H 0.0 **** 0.06
21164 H 35.59422434960652 40.92975884346977 75.88290011722032 H 0.0 **** 0.06
21165 H 35.43979531743048 42.45952957671207 74.98564646960037 H 0.0 **** 0.06
21166 C 23.810644998789115 6.25711739432732 38.33772389471417 C 0.0 **** -0.24
21167 H 24.49994291205624 6.409154296496219 37.50727470122692 H 0.0 **** 0.06
21168 H 24.267875051326115 6.61889923552943 39.259704581559674 H 0.0 **** 0.06
21169 H 23.588117288450263 5.194360524504027 38.43488344067384 H 0.0 **** 0.06
21170 H 22.887733768393588 6.805845613184363 38.14991039197466 H 0.0 **** 0.06
21171 C 121.49031608507494 70.4141962495342 82.07222678335523 C 0.0 **** -0.24
21172 H 122.21727245569629 69.70035281807549 82.4590260510264 H 0.0 **** 0.06
21173 H 120.66056165409373 69.87656822708789 81.61389025378719 H 0.0 **** 0.06
21174 H 121.96769566519134 71.05039418523506 81.32659037227745 H 0.0 **** 0.06
21175 H 121.11618946360998 71.03143040110626 82.89037475220866 H 0.0 **** 0.06
21176 C 119.16918434907905 66.99767195374304 89.28653535231551 C 0.0 **** -0.24
21177 H 120.03197008766898 67.61419602832687 89.03443906278233 H 0.0 **** 0.06
21178 H 118.26142881287916 67.47295752176717 88.91617584088144 H 0.0 **** 0.06
21179 H 119.10720925377638 66.88863078326445 90.36962300144401 H 0.0 **** 0.06
21180 H 119.27874885889366 66.01484422996555 88.82908705690788 H 0.0 **** 0.06
21181 C 67.42465886367577 105.37833482392307 124.11783897442535 C 0.0 **** -0.24
21182 H 66.56639496464868 105.75182202673108 123.55805047015804 H 0.0 **** 0.06
21183 H 67.60404061250634 104.33589978736308 123.85443985422697 H 0.0 **** 0.06
21184 H 67.22160256751019 105.45401946124178 125.18586971323839 H 0.0 **** 0.06
21185 H 68.30477127906713 105.97215335510691 123.87146043311711 H 0.0 **** 0.06
21186 C 116.50040692738852 64.07776357604455 74.04726438322503 C 0.0 **** -0.24
21187 H 116.94058179915687 64.75049824037853 74.78271173878971 H 0.0 **** 0.06
21188 H 116.592286823212 64.51662149904273 73.0533491160594 H 0.0 **** 0.06
21189 H 115.44726826068475 63.923618701129 74.2796325103323 H 0.0 **** 0.06
21190 H 117.02255901776246 63.12119304231477 74.071341830773 H 0.0 **** 0.06
21191 C 42.1984703918001 59.59162715197013 25.98608085063057 C 0.0 **** -0.24
21192 H 41.804053880433734 58.88574302302962 26.7164861337763 H 0.0 **** 0.06
21193 H 42.88124389337313 60.28239479547051 26.480466425631732 H 0.0 **** 0.06
21194 H 41.3753375831322 60.15037768440959 25.540239004789726 H 0.0 **** 0.06
21195 H 42.732151727151454 59.04710053462665 25.207206216749114 H 0.0 **** 0.06
21196 C 99.70778734061116 16.421728274741966 48.328912479723925 C 0.0 **** -0.24
21197 H 99.15399483192598 15.648421861654313 48.8609460659749 H 0.0 **** 0.06
21198 H 100.2575102722318 15.97154461526559 47.50204604355676 H 0.0 **** 0.06
21199 H 100.40771797633778 16.90372214852978 49.01191449333223 H 0.0 **** 0.06
21200 H 99.01038552380874 17.16460355687945 47.939892162959126 H 0.0 **** 0.06
21201 C 3.9468789446074233 68.24513199344652 47.234995837496996 C 0.0 **** -0.24
21202 H 3.6368252028510515 67.22146221506542 47.02368658464454 H 0.0 **** 0.06
21203 H 3.8782113482982687 68.84054529013244 46.324388626680616 H 0.0 **** 0.06
21204 H 4.977467031991004 68.24498313645091 47.59268422650467 H 0.0 **** 0.06
21205 H 3.296839981286432 68.67117165247711 47.99897243510546 H 0.0 **** 0.06
21206 C 40.45153723390308 108.54692738262521 91.09865805103593 C 0.0 **** -0.24
21207 H 41.212213789640884 109.07855890628676 90.52786846471014 H 0.0 **** 0.06
21208 H 39.537387398039115 109.14200174911966 91.12874827672911 H 0.0 **** 0.06
21209 H 40.80984208928459 108.38025012945397 92.11408554012601 H 0.0 **** 0.06
21210 H 40.24446996274017 107.58780025830809 90.62349488182119 H 0.0 **** 0.06
21211 C 118.23998561490443 66.66653757258005 101.44476405107346 C 0.0 **** -0.24
21212 H 118.95325531523862 67.35698580872025 101.89602930459554 H 0.0 **** 0.06
21213 H 117.357245705582 66.59107117461913 102.07925577700983 H 0.0 **** 0.06
21214 H 118.70106513489921 65.68368324727692 101.34302515061233 H 0.0 **** 0.06
21215 H 117.95127859657184 67.03566191965068 100.46064557214788 H 0.0 **** 0.06
21216 C 94.60273882483173 122.25141019267119 95.30461872013765 C 0.0 **** -0.24
21217 H 93.61863278484631 122.09117844364822 94.86441219361912 H 0.0 **** 0.06
21218 H 95.3108594033277 122.52480087235784 94.52221696795188 H 0.0 **** 0.06
21219 H 94.93527390265142 121.33417959485858 95.79232585341944 H 0.0 **** 0.06
21220 H 94.54438694027034 123.05319871820225 96.04025442406041 H 0.0 **** 0.06
21221 C 71.08743361329253 45.175846311988096 53.69128075084561 C 0.0 **** -0.24
21222 H 71.34340455366876 45.58546404556154 52.71462889558839 H 0.0 **** 0.06
21223 H 71.532966254849 44.18636846531356 53.797929746206876 H 0.0 **** 0.06
21224 H 70.00454051496664 45.09853554640648 53.780992589851934 H 0.0 **** 0.06
21225 H 71.47079747451913 45.83341073839969 54.472545091200544 H 0.0 **** 0.06
21226 C 20.196559200776335 6.823244504212852 1.8849155456255318 C 0.0 **** -0.24
21227 H 19.449956231308057 7.213919772735068 2.5760533949877527 H 0.0 **** 0.06
21228 H 20.345590590817018 5.759404267655356 2.074352597930286 H 0.0 **** 0.06
21229 H 21.13705312020359 7.353477839353104 2.028652841437406 H 0.0 **** 0.06
21230 H 19.852020890840762 6.963913390006013 0.8600846519824756 H 0.0 **** 0.06
21231 C 88.99638015794936 38.23003509894687 61.54849293543418 C 0.0 **** -0.24
21232 H 89.60567505659978 39.06268125577668 61.19851900339279 H 0.0 **** 0.06
21233 H 88.05872868117451 38.61040928519907 61.95380626651337 H 0.0 **** 0.06
21234 H 89.5342865995674 37.68715910737893 62.32539447345309 H 0.0 **** 0.06
21235 H 88.78629762008478 37.55870425952122 60.71569647007263 H 0.0 **** 0.06
21236 C 54.563932386503424 15.14579298274495 74.72123895357635 C 0.0 **** -0.24
21237 H 54.07836955291121 14.693759635358134 75.5864136890973 H 0.0 **** 0.06
21238 H 54.171924112477186 16.15183024061716 74.5694783064381 H 0.0 **** 0.06
21239 H 54.364553489949515 14.541875343304497 73.8358823816996 H 0.0 **** 0.06
21240 H 55.639180884452415 15.196533902298114 74.89198942179979 H 0.0 **** 0.06
21241 C 17.534554824078924 80.46098761505526 19.72121161675733 C 0.0 **** -0.24
21242 H 16.816981175030165 79.85402082243765 20.273979306858436 H 0.0 **** 0.06
21243 H 17.71464427077433 80.01060943037837 18.74478086114148 H 0.0 **** 0.06
21244 H 18.470365023035868 80.51272093097091 20.27640128243697 H 0.0 **** 0.06
21245 H 17.13403539577112 81.4665984312622 19.58925013182325 H 0.0 **** 0.06
21246 C 74.77179080384234 5.31781970225401 26.90249621717345 C 0.0 **** -0.24
21247 H 74.58138950587717 6.325830933011897 27.272217005537726 H 0.0 **** 0.06
21248 H 75.40536175914491 4.7843032915205335 27.61222918153848 H 0.0 **** 0.06
21249 H 75.27412465920024 5.374228806015644 25.936945388816042 H 0.0 **** 0.06
21250 H 73.82558487656317 4.787866376787104 26.789369877526923 H 0.0 **** 0.06
21251 C 16.773702330542008 92.4466354891687 6.980435870554146 C 0.0 **** -0.24
21252 H 17.654162053415646 92.74611320515173 6.410837286124604 H 0.0 **** 0.06
21253 H 16.915303575268382 91.4346073349875 7.361656133618482 H 0.0 **** 0.06
21254 H 15.896327739109736 92.47303183686901 6.334515020569938 H 0.0 **** 0.06
21255 H 16.631304948276664 93.13259082267766 7.81558435004294 H 0.0 **** 0.06
21256 C 103.61925737523251 52.45906837993638 93.69753050500734 C 0.0 **** -0.24
21257 H 104.03625400350722 53.32376170190696 93.181440426872 H 0.0 **** 0.06
21258 H 104.38172640710764 52.01586439774448 94.33847429288906 H 0.0 **** 0.06
21259 H 103.28748452516257 51.72390535992335 92.96436489256243 H 0.0 **** 0.06
21260 H 102.7708558591496 52.773946463024174 94.30481902584245 H 0.0 **** 0.06
21261 C 55.09740821047035 74.30768606414205 99.92394186533376 C 0.0 **** -0.24
21262 H 56.163279797042264 74.23501449418993 100.1440018603423 H 0.0 **** 0.06
21263 H 54.79326194800308 73.45183525603761 99.32037313226063 H 0.0 **** 0.06
21264 H 54.902488835383 75.2282715087162 99.37504250149297 H 0.0 **** 0.06
21265 H 54.534331044436215 74.31336598166658 100.85629451201754 H 0.0 **** 0.06
21266 C 4.0170220036681314 13.009352187874697 111.94990396043025 C 0.0 **** -0.24
21267 H 3.897394723541737 13.75235604280175 111.15999104636612 H 0.0 **** 0.06
21268 H 3.2794103246733215 13.18991771414872 112.73174780729153 H 0.0 **** 0.06
21269 H 5.018954764779124 13.084678943960569 112.37091851965224 H 0.0 **** 0.06
21270 H 3.870324099173075 12.01268986450745 111.53495988250398 H 0.0 **** 0.06
21271 C 45.30712292893686 71.43125376853635 105.4781768023212 C 0.0 **** -0.24
21272 H 46.223924478203145 70.92791943237822 105.78493267472672 H 0.0 **** 0.06
21273 H 44.782479969077144 70.81567636017294 104.74724387474433 H 0.0 **** 0.06
21274 H 45.55404761690224 72.39492273452188 105.0315627825112 H 0.0 **** 0.06
21275 H 44.66934300536488 71.58660998458075 106.34843074784811 H 0.0 **** 0.06
21276 C 122.84228497846473 90.64021676209285 50.752410690849416 C 0.0 **** -0.24
21277 H 121.7934230349954 90.42107440117718 50.951734406223494 H 0.0 **** 0.06
21278 H 122.91154230017969 91.46920758474823 50.04631404020492 H 0.0 **** 0.06
21279 H 123.32319827990383 89.76009285315632 50.3266408483442 H 0.0 **** 0.06
21280 H 123.3399473611524 90.91322516260954 51.68261402333978 H 0.0 **** 0.06
21281 C 41.78491019143586 51.06929737386906 73.35793124526498 C 0.0 **** -0.24
21282 H 42.00184195809718 50.369005524741766 72.55206861657548 H 0.0 **** 0.06
21283 H 42.26768202049126 52.02408184424674 73.14824406715913 H 0.0 **** 0.06
21284 H 42.164613633286066 50.6692396465931 74.29816729374498 H 0.0 **** 0.06
21285 H 40.70742440224248 51.2157743993904 73.43255400745987 H 0.0 **** 0.06
21286 C 79.27056797291462 80.98022308068283 56.84233938461625 C 0.0 **** -0.24
21287 H 78.6656568117164 80.09651369543576 57.04181579600893 H 0.0 **** 0.06
21288 H 80.30815990321437 80.68357661171748 56.68814282114769 H 0.0 **** 0.06
21289 H 79.20923443167703 81.66169863434362 57.690774396114335 H 0.0 **** 0.06
21290 H 78.899234303217 81.48067678696373 55.94790039022129 H 0.0 **** 0.06
21291 C 22.167229431966973 20.12311478143488 64.8936917811185 C 0.0 **** -0.24
21292 H 21.545492405505456 19.250390125471256 64.69427401634304 H 0.0 **** 0.06
21293 H 21.703796683724647 20.7295104685536 65.67211331402996 H 0.0 **** 0.06
21294 H 22.265843271770052 20.71402864724149 63.982650693343444 H 0.0 **** 0.06
21295 H 23.153843210267212 19.798746996105592 65.2243328114152 H 0.0 **** 0.06
21296 C 8.18074342226943 24.95503019539882 32.71338637348083 C 0.0 **** -0.24
21297 H 7.256036333561418 25.497433315685186 32.511960316743284 H 0.0 **** 0.06
21298 H 8.079316985040748 24.399467542958405 33.646552817233356 H 0.0 **** 0.06
21299 H 9.004847157168335 25.662552549536343 32.79883695825772 H 0.0 **** 0.06
21300 H 8.379082988040945 24.260731503294807 31.896810930383694 H 0.0 **** 0.06
21301 C 40.402128215196605 14.234175610329615 90.50592824377856 C 0.0 **** -0.24
21302 H 40.29214984838211 15.317663882867507 90.4567383216733 H 0.0 **** 0.06
21303 H 41.22933802371966 13.982367700012816 91.17033585259583 H 0.0 **** 0.06
21304 H 40.60540776823681 13.844088829882068 89.50849681861826 H 0.0 **** 0.06
21305 H 39.481617220447646 13.792582028555927 90.88814198222684 H 0.0 **** 0.06
21306 C 28.331455737524017 79.45202310305012 85.74288064013015 C 0.0 **** -0.24
21307 H 28.972094499273055 79.68064076832141 86.5944325365191 H 0.0 **** 0.06
21308 H 27.344523522877495 79.1565726241854 86.10106440130107 H 0.0 **** 0.06
21309 H 28.76942089142802 78.63592596655681 85.16819055449088 H 0.0 **** 0.06
21310 H 28.24054308966661 80.3346318030836 85.11014178849203 H 0.0 **** 0.06
21311 C 26.857387494899115 32.79812600953514 19.855084390146004 C 0.0 **** -0.24
21312 H 26.502574707841006 33.54324946304342 19.142958250480376 H 0.0 **** 0.06
21313 H 26.170036771861646 31.951534082220064 19.866032578285314 H 0.0 **** 0.06
21314 H 26.90471203553085 33.24061759490789 20.849779950215463 H 0.0 **** 0.06
21315 H 27.849584055068874 32.4576357238291 19.55991320790821 H 0.0 **** 0.06
21316 C 108.39383290506856 32.016268516368434 27.224705993584223 C 0.0 **** -0.24
21317 H 109.00139271399684 32.04883108884158 28.129484697276894 H 0.0 **** 0.06
21318 H 107.92393282112141 31.035935427316772 27.138545004886737 H 0.0 **** 0.06
21319 H 109.02603000230977 32.19371059764537 26.35541963328285 H 0.0 **** 0.06
21320 H 107.6229043051967 32.78496000292746 27.276457209720633 H 0.0 **** 0.06
21321 C 25.62673485172283 66.02878567893848 111.62100391400381 C 0.0 **** -0.24
21322 H 24.558918294563853 65.82024902607309 111.55454359823688 H 0.0 **** 0.06
21323 H 25.8884457903886 66.81112120277824 110.90775551259557 H 0.0 **** 0.06
21324 H 26.188110528362415 65.12376839073491 111.39144193938023 H 0.0 **** 0.06
21325 H 25.869027489470426 66.3617531988398 112.63030051238664 H 0.0 **** 0.06
21326 C 26.25346363403834 107.42104765239027 94.60413949607693 C 0.0 **** -0.24
21327 H 26.674001471580965 107.86266142830333 93.70041889041497 H 0.0 **** 0.06
21328 H 26.32206395827761 108.13707679168053 95.42387911485687 H 0.0 **** 0.06
21329 H 26.81020801583415 106.51971743547624 94.86110108053217 H 0.0 **** 0.06
21330 H 25.207804267445823 107.16562717386108 94.43155156828462 H 0.0 **** 0.06
21331 C 103.97922990221778 18.807114795595055 96.68430703708825 C 0.0 **** -0.24
21332 H 103.8147601624263 19.039678176511586 97.73710035064839 H 0.0 **** 0.06
21333 H 105.05062216807198 18.766536377304817 96.48385305760871 H 0.0 **** 0.06
21334 H 103.52264867513594 19.580309304682544 96.06655261071934 H 0.0 **** 0.06
21335 H 103.52930129861852 17.842364566171682 96.45163148740279 H 0.0 **** 0.06
21336 C 104.95547831190495 69.05787763287802 83.3726211455523 C 0.0 **** -0.24
21337 H 104.79519093737159 70.01626580901373 82.88045280161242 H 0.0 **** 0.06
21338 H 105.64712808992371 68.45742223328543 82.78135417770316 H 0.0 **** 0.06
21339 H 104.00489310869469 68.53290102027356 83.4650604025621 H 0.0 **** 0.06
21340 H 105.3757075776912 69.22458198221224 84.36498538734408 H 0.0 **** 0.06
21341 C 16.299530653239174 50.97240042110218 108.02795332578012 C 0.0 **** -0.24
21342 H 15.962668623425941 49.94582917740644 108.1772223519178 H 0.0 **** 0.06
21343 H 15.492950603622148 51.55682772383773 107.58492051136122 H 0.0 **** 0.06
21344 H 17.16140584876115 50.9778346997478 107.36180376059644 H 0.0 **** 0.06
21345 H 16.578865720258307 51.406110913755526 108.98770943596628 H 0.0 **** 0.06
21346 C 34.811812366889 78.66786860552781 7.721895645508894 C 0.0 **** -0.24
21347 H 35.61494983615904 79.36407408351704 7.482498928505905 H 0.0 **** 0.06
21348 H 34.127405921311066 79.13300056053515 8.431434082968536 H 0.0 **** 0.06
21349 H 35.23419983596551 77.76480669370369 8.162940694487517 H 0.0 **** 0.06
21350 H 34.27166604281496 78.40965928017562 6.810933731063727 H 0.0 **** 0.06
21351 C 87.090003890199 86.3841442278323 101.88662158214936 C 0.0 **** -0.24
21352 H 86.49588105871524 87.28115225312207 102.0612737252149 H 0.0 **** 0.06
21353 H 87.91075491599432 86.34631307070981 102.60407357032693 H 0.0 **** 0.06
21354 H 87.49293305834138 86.40712193187923 100.87414056404236 H 0.0 **** 0.06
21355 H 86.46040033085208 85.50311918987333 102.00784824866668 H 0.0 **** 0.06
21356 C 85.1611675651408 54.408981437534806 81.07359516063273 C 0.0 **** -0.24
21357 H 84.46490163624631 54.558873133782754 81.89867936129255 H 0.0 **** 0.06
21358 H 85.95562998680501 53.732193667899566 81.3875640534828 H 0.0 **** 0.06
21359 H 85.59354078756033 55.36706137304526 80.78345900088576 H 0.0 **** 0.06
21360 H 84.6305978499515 53.977797575411586 80.22467822686987 H 0.0 **** 0.06
21361 C 2.431239287299798 68.98794196338443 118.19085508787954 C 0.0 **** -0.24
21362 H 3.035102220710794 69.09772484929962 119.09200602905452 H 0.0 **** 0.06
21363 H 2.1796506490187095 69.97482941845325 117.80080113777215 H 0.0 **** 0.06
21364 H 1.5163164095480397 68.44748654668817 118.43037271533942 H 0.0 **** 0.06
21365 H 2.996134499580055 68.43345535008919 117.44122336248108 H 0.0 **** 0.06
21366 C 63.43693540093159 45.84578141647921 45.036148899254556 C 0.0 **** -0.24
21367 H 63.51278449821713 44.84919554756513 45.470629285840346 H 0.0 **** 0.06
21368 H 64.05990365730406 45.900605597818895 44.143181605166944 H 0.0 **** 0.06
21369 H 63.77685644348671 46.58519357527834 45.76175766980495 H 0.0 **** 0.06
21370 H 62.39999877696846 46.047882127044915 44.76985885394606 H 0.0 **** 0.06
21371 C 107.58589955584115 35.44705667887845 4.570018662480692 C 0.0 **** -0.24
21372 H 107.02676450506493 35.87345940978529 3.737220122679645 H 0.0 **** 0.06
21373 H 108.12412769937102 36.23917259737685 5.08997684502819 H 0.0 **** 0.06
21374 H 108.29689006211832 34.71170662627012 4.192248159341091 H 0.0 **** 0.06
21375 H 106.89515426904097 34.96272141969912 5.261078048712989 H 0.0 **** 0.06
21376 C 3.9984473989740934 1.8335218876405008 18.326907058101845 C 0.0 **** -0.24
21377 H 3.4814221282474307 2.753657468517247 18.60019284010796 H 0.0 **** 0.06
21378 H 5.062718495274879 2.0375433551208744 18.208033179781143 H 0.0 **** 0.06
21379 H 3.5932445136203057 1.4550471445732711 17.389279671628323 H 0.0 **** 0.06
21380 H 3.855452768293617 1.090484170516163 19.111171788866482 H 0.0 **** 0.06
21381 C 3.1730002366908607 8.50795577457523 92.12246807382411 C 0.0 **** -0.24
21382 H 3.6706977738423063 8.98949522220705 91.28108908862214 H 0.0 **** 0.06
21383 H 2.600199027280844 9.251033367207736 92.67842872009606 H 0.0 **** 0.06
21384 H 3.918243962972955 8.058584936888284 92.77727815185534 H 0.0 **** 0.06
21385 H 2.5000441475282322 7.7336952747510885 91.75081821893531 H 0.0 **** 0.06
21386 C 3.7193972555359096 121.4722699811671 51.13367770027376 C 0.0 **** -0.24
21387 H 4.728939207249226 121.837898981676 51.31774593697314 H 0.0 **** 0.06
21388 H 3.6346800271071515 120.44468479792164 51.48768392471385 H 0.0 **** 0.06
21389 H 3.5110323946603472 121.50612438270741 50.06416534023627 H 0.0 **** 0.06
21390 H 3.0032278025797865 122.1002674667694 51.66373542091302 H 0.0 **** 0.06
21391 C 12.770474001235726 38.46433756542865 112.4935017554921 C 0.0 **** -0.24
21392 H 13.207017355367555 39.27622419125095 111.91174775478436 H 0.0 **** 0.06
21393 H 13.420747573813856 38.23189287065742 113.33683944104047 H 0.0 **** 0.06
21394 H 12.665025289324035 37.58172861030397 111.86162615277021 H 0.0 **** 0.06
21395 H 11.791285485523673 38.76750872013076 112.86173227155763 H 0.0 **** 0.06
21396 C 14.356436154331682 55.6932223676489 72.88462026646431 C 0.0 **** -0.24
21397 H 15.306537961365674 56.06850029949726 72.50417612351447 H 0.0 **** 0.06
21398 H 13.636563496121855 55.63406864074915 72.06776657949678 H 0.0 **** 0.06
21399 H 13.98011878906993 56.367103266615175 73.65381103811237 H 0.0 **** 0.06
21400 H 14.503334102171063 54.70054800967296 73.31225844649427 H 0.0 **** 0.06
21401 C 57.62315557826955 0.21205283443765666 111.92782516595497 C 0.0 **** -0.24
21402 H 57.31277968208657 -0.6253579150233577 112.55246164303273 H 0.0 **** 0.06
21403 H 57.70907180545545 1.1100796556317505 112.5408896177652 H 0.0 **** 0.06
21404 H 56.88385778270727 0.375160996491843 111.14457289107023 H 0.0 **** 0.06
21405 H 58.58880317434068 -0.012641464243188238 111.47524381106021 H 0.0 **** 0.06
21406 C 45.98943191853246 89.76167296994626 22.578727478720005 C 0.0 **** -0.24
21407 H 45.78843473348823 90.01779088791193 23.61926218899005 H 0.0 **** 0.06
21408 H 45.89985573839519 90.6555664823114 21.961478581111315 H 0.0 **** 0.06
21409 H 45.270069674476616 89.01423506472409 22.243039698430643 H 0.0 **** 0.06
21410 H 46.99845065653034 89.3593625505666 22.493151917762923 H 0.0 **** 0.06
21411 C 54.12831572607075 45.936030894350324 121.03931575819746 C 0.0 **** -0.24
21412 H 54.76615301767936 46.32843246794073 121.83116125271397 H 0.0 **** 0.06
21413 H 53.19658578000826 46.502194980126546 121.00998456637791 H 0.0 **** 0.06
21414 H 53.90942245392546 44.885584514188054 121.23680744322382 H 0.0 **** 0.06
21415 H 54.640232109740225 46.026493139619674 120.08159718195122 H 0.0 **** 0.06
21416 C 120.29796265267495 110.90498698628826 45.45956251750573 C 0.0 **** -0.24
21417 H 120.43161088113996 110.73639133645383 44.390988062055186 H 0.0 **** 0.06
21418 H 119.64661810801101 110.13321796887769 45.87007024043666 H 0.0 **** 0.06
21419 H 119.84600207395101 111.88436435244557 45.61901582842086 H 0.0 **** 0.06
21420 H 121.2669109675593 110.86539498410912 45.95709777896346 H 0.0 **** 0.06
21421 C 60.54724926664997 35.55787978144241 13.220150997050553 C 0.0 **** -0.24
21422 H 59.46635880892131 35.47612114384384 13.104734088317748 H 0.0 **** 0.06
21423 H 60.92271256360601 34.682155559581986 13.7495233677483 H 0.0 **** 0.06
21424 H 60.78413889585124 36.45622456879539 13.789677661405037 H 0.0 **** 0.06
21425 H 61.01439364701724 35.61677549355659 12.236691200183998 H 0.0 **** 0.06
21426 C 24.39244188616894 67.31296707516373 31.19717105506362 C 0.0 **** -0.24
21427 H 23.769265546082124 67.50748990918362 30.32467762394043 H 0.0 **** 0.06
21428 H 24.9550369785091 68.21288866027862 31.44903947574153 H 0.0 **** 0.06
21429 H 25.08552761829577 66.50120462203034 30.974978286315093 H 0.0 **** 0.06
21430 H 23.760505977887476 67.03133522040201 32.03923114378546 H 0.0 **** 0.06
21431 C 110.58156553638722 13.120184078832494 17.11571791331013 C 0.0 **** -0.24
21432 H 111.07560592645487 13.849205456439904 16.471811288425236 H 0.0 **** 0.06
21433 H 109.52177890036259 13.075172359238138 16.865102806436184 H 0.0 **** 0.06
21434 H 110.69653418319129 13.42010136259887 18.157403830280117 H 0.0 **** 0.06
21435 H 111.03277070892801 12.139765308030348 16.967324635699942 H 0.0 **** 0.06
21436 C 45.003865207754075 56.74267198970517 69.28881651422212 C 0.0 **** -0.24
21437 H 44.75115121284833 57.61640309734628 68.68793440634163 H 0.0 **** 0.06
21438 H 44.54495972919133 56.83392538565238 70.2740131257104 H 0.0 **** 0.06
21439 H 46.085905052518115 56.67589555824793 69.39567770362362 H 0.0 **** 0.06
21440 H 44.630729845523746 55.84435183500665 68.79685552463727 H 0.0 **** 0.06
21441 C 84.31480500028033 97.92191874513361 17.884465110069613 C 0.0 **** -0.24
21442 H 83.91303986006403 97.75226423019478 18.883538599748476 H 0.0 **** 0.06
21443 H 84.9410342580228 97.07724377459269 17.595972720328405 H 0.0 **** 0.06
21444 H 84.9123618719853 98.83372877689493 17.883476181926454 H 0.0 **** 0.06
21445 H 83.49407005799611 98.02584662749155 17.17547512305697 H 0.0 **** 0.06
21446 C 55.61375118534204 52.34248230700946 55.65964645042504 C 0.0 **** -0.24
21447 H 54.87257536909573 53.05419322733023 55.29401171373006 H 0.0 **** 0.06
21448 H 56.05353165208203 51.811721368040295 54.81499522193603 H 0.0 **** 0.06
21449 H 55.132738928025674 51.62824681042052 56.32794097522361 H 0.0 **** 0.06
21450 H 56.394281227814076 52.87710451884895 56.19971735002308 H 0.0 **** 0.06
21451 C 2.579904401017542 33.814358237455366 62.30848331142667 C 0.0 **** -0.24
21452 H 3.2681917677164716 32.97190062020073 62.24722709477744 H 0.0 **** 0.06
21453 H 1.5533237427101287 33.44727253555902 62.28285111513303 H 0.0 **** 0.06
21454 H 2.7476273318014606 34.48157443982808 61.46331809764585 H 0.0 **** 0.06
21455 H 2.749732073326097 34.35562596777518 63.238713100926645 H 0.0 **** 0.06
21456 C 99.36045723898238 106.155021775591 34.32419526394925 C 0.0 **** -0.24
21457 H 98.52511539890993 105.94653224970924 34.99225724189283 H 0.0 **** 0.06
21458 H 99.06510113632743 105.94240211968031 33.29662221310764 H 0.0 **** 0.06
21459 H 100.20809632813999 105.52623384575833 34.5973608574014 H 0.0 **** 0.06
21460 H 99.64268441111035 107.20311596317512 34.412789799529605 H 0.0 **** 0.06
21461 C 101.26189391066481 100.26722212924167 19.223689099935115 C 0.0 **** -0.24
21462 H 100.44812430643975 100.93535464537925 18.94244959603745 H 0.0 **** 0.06
21463 H 100.91068250376202 99.23546919038174 19.196373260554736 H 0.0 **** 0.06
21464 H 101.59968727439178 100.50936545013298 20.231648918473354 H 0.0 **** 0.06
21465 H 102.08908155806563 100.3886992310727 18.524284624674664 H 0.0 **** 0.06
21466 C 47.44473858155638 16.942290781006477 42.65020212871647 C 0.0 **** -0.24
21467 H 47.28576004149585 16.404196284501666 41.71608072002536 H 0.0 **** 0.06
21468 H 48.020144900578 16.31817225794879 43.334974660881414 H 0.0 **** 0.06
21469 H 46.479871058808214 17.181095939475938 43.099385338476026 H 0.0 **** 0.06
21470 H 47.99121027960322 17.86383674102541 42.45165643933183 H 0.0 **** 0.06
21471 C 94.15263327080163 27.58791752485913 110.5340212668408 C 0.0 **** -0.24
21472 H 93.28607601757028 27.0890026841264 110.10069438190061 H 0.0 **** 0.06
21473 H 95.04950147062328 27.004067523115964 110.32615512254671 H 0.0 **** 0.06
21474 H 94.01892211627592 27.67786821373373 111.61226935233276 H 0.0 **** 0.06
21475 H 94.256316071655 28.581535459854017 110.09644263600626 H 0.0 **** 0.06
21476 C 85.61511838977981 123.92355187264502 67.41064056739117 C 0.0 **** -0.24
21477 H 84.89818099136414 124.72153919538997 67.2179472970472 H 0.0 **** 0.06
21478 H 85.09191123986449 122.96840333297175 67.45370147906175 H 0.0 **** 0.06
21479 H 86.11528918943992 124.1074079343307 68.36228173234505 H 0.0 **** 0.06
21480 H 86.35524794201956 123.89825513734434 66.6103699450232 H 0.0 **** 0.06
21481 C 29.02381337579952 52.16979134036478 38.17022871266372 C 0.0 **** -0.24
21482 H 30.09347509395522 52.0042460007225 38.03818210960429 H 0.0 **** 0.06
21483 H 28.846987534701952 53.21458660745074 38.424134477827714 H 0.0 **** 0.06
21484 H 28.65413630159381 51.53183090605452 38.97269679657972 H 0.0 **** 0.06
21485 H 28.502559860119334 51.92746862022159 37.24359867291056 H 0.0 **** 0.06
21486 C 15.157813016075693 78.24958619890481 96.89178516007138 C 0.0 **** -0.24
21487 H 14.29744037055957 77.60907650039653 97.0867594296956 H 0.0 **** 0.06
21488 H 15.690203160256317 77.8859131944383 96.01363635735291 H 0.0 **** 0.06
21489 H 15.825551785895527 78.23274105296278 97.7546194544573 H 0.0 **** 0.06
21490 H 14.818566796037103 79.27008554461523 96.71579436125913 H 0.0 **** 0.06
21491 C 107.23720180866493 16.4980676714236 20.427043530717924 C 0.0 **** -0.24
21492 H 107.983048886256 15.71288970547755 20.300724726251616 H 0.0 **** 0.06
21493 H 107.69331787034395 17.468425555747103 20.227227365256653 H 0.0 **** 0.06
21494 H 106.85847791245695 16.478624625542523 21.44807427930212 H 0.0 **** 0.06
21495 H 106.41457439697086 16.33270314588708 19.73092827374427 H 0.0 **** 0.06
21496 C 3.913803377499761 120.45759369593162 20.05290772178796 C 0.0 **** -0.24
21497 H 3.547498841836017 119.6473956297148 19.42211392895885 H 0.0 **** 0.06
21498 H 4.7796989785748565 120.11228951137119 20.619502496835928 H 0.0 **** 0.06
21499 H 3.1273332932802873 120.76529543507235 20.742311213474416 H 0.0 **** 0.06
21500 H 4.20201035563494 121.30219960669122 19.427525223310585 H 0.0 **** 0.06
21501 C 97.22483365886052 40.281824478388586 102.58872898868887 C 0.0 **** -0.24
21502 H 97.75177182893705 39.34926953912161 102.39180755793308 H 0.0 **** 0.06
21503 H 97.09975647970585 40.40914746536093 103.66384118883045 H 0.0 **** 0.06
21504 H 96.24505924866483 40.25402306726639 102.11053346026682 H 0.0 **** 0.06
21505 H 97.80071037781175 41.11566060519172 102.1882780165979 H 0.0 **** 0.06
21506 C 117.41330214202164 66.41583467682281 3.514061636524616 C 0.0 **** -0.24
21507 H 117.55253568227465 67.43301071018018 3.1466168158510754 H 0.0 **** 0.06
21508 H 117.91893589252787 65.71676851134751 2.848740168952176 H 0.0 **** 0.06
21509 H 116.34840096304359 66.18436452805815 3.5446848184756305 H 0.0 **** 0.06
21510 H 117.8323938172696 66.3317617907692 4.5174392813387385 H 0.0 **** 0.06
21511 C 106.02847240157566 85.85104337970688 122.89271214933441 C 0.0 **** -0.24
21512 H 106.37290607369277 86.76659292721536 123.3721327412488 H 0.0 **** 0.06
21513 H 106.88961777966534 85.2543245855968 122.58962123718696 H 0.0 **** 0.06
21514 H 105.43383649764068 86.10244597087245 122.0149544718058 H 0.0 **** 0.06
21515 H 105.4197147485686 85.28041897837028 123.59387376032815 H 0.0 **** 0.06
21516 C 24.798010812457612 61.29741103734335 70.83995217370645 C 0.0 **** -0.24
21517 H 24.46735220694046 62.07691125027549 71.52725492948585 H 0.0 **** 0.06
21518 H 24.34772832289005 61.46304300866245 69.86054954594798 H 0.0 **** 0.06
21519 H 24.49237520850896 60.323346285827085 71.2211573861137 H 0.0 **** 0.06
21520 H 25.884220122888728 61.32862352318 70.75166372902746 H 0.0 **** 0.06
21521 C 22.76403895329014 28.375643723004487 14.035754387151997 C 0.0 **** -0.24
21522 H 23.538273593289944 29.132490798559957 14.165025342559488 H 0.0 **** 0.06
21523 H 23.226834500154723 27.390496939171385 13.973667133210881 H 0.0 **** 0.06
21524 H 22.210714028218092 28.576052914709578 13.118263029521643 H 0.0 **** 0.06
21525 H 22.082218415445425 28.404534851410176 14.885393567647839 H 0.0 **** 0.06
21526 C 107.73233048319153 104.82043435824866 81.47159045364891 C 0.0 **** -0.24
21527 H 107.50495451047877 105.3563375600649 80.55026661677374 H 0.0 **** 0.06
21528 H 108.76903101388595 104.48341938684615 81.44899255105202 H 0.0 **** 0.06
21529 H 107.07201761855359 103.95822833301429 81.56203585471967 H 0.0 **** 0.06
21530 H 107.58353349930948 105.48387815823844 82.32409824872728 H 0.0 **** 0.06
21531 C 78.0464364676447 98.01310649605972 13.95568114918845 C 0.0 **** -0.24
21532 H 77.07427918380745 97.52041811335016 13.933206882719503 H 0.0 **** 0.06
21533 H 78.53364097278853 97.81225004336926 14.9100826312648 H 0.0 **** 0.06
21534 H 77.90978243224134 99.08811637337334 13.835297664277675 H 0.0 **** 0.06
21535 H 78.66420192058371 97.63269326341629 13.143070388352385 H 0.0 **** 0.06
21536 C 94.11468575652998 84.52444920540347 3.6296620319157 C 0.0 **** -0.24
21537 H 93.16709899227448 84.0875414909404 3.944904295634217 H 0.0 **** 0.06
21538 H 94.7489721299549 84.68278611845159 4.502126903059775 H 0.0 **** 0.06
21539 H 93.92875640387606 85.477819283136 3.1361790847179805 H 0.0 **** 0.06
21540 H 94.61299755639743 83.84697452453202 2.935442200524278 H 0.0 **** 0.06
21541 C 102.4019737695267 41.10225395817673 29.79914326514219 C 0.0 **** -0.24
21542 H 103.11252689035811 40.96065525845739 28.984951172353618 H 0.0 **** 0.06
21543 H 102.94446477789998 41.22144918368605 30.738113350883197 H 0.0 **** 0.06
21544 H 101.74725194669386 40.23290057876534 29.865639761126715 H 0.0 **** 0.06
21545 H 101.80433337336976 41.99356826217246 29.60845118663721 H 0.0 **** 0.06
21546 C 69.65020844223572 116.75159732219919 48.8599818249088 C 0.0 **** -0.24
21547 H 70.7389115297414 116.7883157286185 48.90454728349829 H 0.0 **** 0.06
21548 H 69.30817419388988 115.75690025801754 49.148999348783946 H 0.0 **** 0.06
21549 H 69.32123634664971 116.96781606908627 47.84351120292757 H 0.0 **** 0.06
21550 H 69.23355301842314 117.49240186075588 49.54292445656358 H 0.0 **** 0.06
21551 C 22.264348913999584 35.0674004997079 7.57512244591447 C 0.0 **** -0.24
21552 H 21.543833707972908 34.75617037047064 6.81857346131525 H 0.0 **** 0.06
21553 H 22.171452170018313 34.42443467775759 8.450957423798116 H 0.0 **** 0.06
21554 H 22.06783776939784 36.100727419253516 7.860498582527455 H 0.0 **** 0.06
21555 H 23.273716842556325 34.98719915741003 7.171199367794813 H 0.0 **** 0.06
21556 C 34.890450579986464 49.09523765472041 48.5947594279219 C 0.0 **** -0.24
21557 H 35.96543127129492 48.91627910646221 48.6334390373284 H 0.0 **** 0.06
21558 H 34.60861931289524 49.78452133820717 49.39205734052321 H 0.0 **** 0.06
21559 H 34.36051775663866 48.15248784112225 48.725168855801996 H 0.0 **** 0.06
21560 H 34.629653597687366 49.52948829194177 47.62927350882306 H 0.0 **** 0.06
21561 C 120.30898965162413 35.84390945580017 67.61661483646046 C 0.0 **** -0.24
21562 H 120.83985594838212 36.577443882302276 68.22403558630835 H 0.0 **** 0.06
21563 H 119.32667685458773 35.65639117337494 68.04966003531369 H 0.0 **** 0.06
21564 H 120.87837000409183 34.91499627603963 67.59084651875425 H 0.0 **** 0.06
21565 H 120.19310511776987 36.22837879927377 66.60344318881666 H 0.0 **** 0.06
21566 C 12.808488788942107 58.87083709763722 78.33060972748123 C 0.0 **** -0.24
21567 H 13.18442770256786 59.22933501471029 79.28852091776565 H 0.0 **** 0.06
21568 H 12.3489975061342 59.697023160383395 77.7880149809092 H 0.0 **** 0.06
21569 H 12.066992090919744 58.09053775411367 78.50086032272148 H 0.0 **** 0.06
21570 H 13.633727213850463 58.465072292699205 77.74479899727712 H 0.0 **** 0.06
21571 C 103.12187365329424 121.94161421097805 32.420279497820616 C 0.0 **** -0.24
21572 H 102.23349981131346 122.55587081308768 32.56632893178954 H 0.0 **** 0.06
21573 H 104.01333886657956 122.55973306078211 32.52873959094836 H 0.0 **** 0.06
21574 H 103.10164771930188 121.50601718118386 31.42070663379485 H 0.0 **** 0.06
21575 H 103.13978771018508 121.14446158297571 33.16305096204661 H 0.0 **** 0.06
21576 C 83.80086168785408 89.97334646558316 81.75456502666131 C 0.0 **** -0.24
21577 H 84.46754050109325 89.11065425045217 81.76074911980832 H 0.0 **** 0.06
21578 H 84.18899820137074 90.7359806275257 82.42919666741524 H 0.0 **** 0.06
21579 H 82.80862210112804 89.66591267010143 82.08480398793894 H 0.0 **** 0.06
21580 H 83.73866313928039 90.37718787780011 80.74424025684678 H 0.0 **** 0.06
21581 C 90.70484399106226 12.696779676618036 120.97192524690924 C 0.0 **** -0.24
21582 H 89.87374729625752 12.076012094451187 120.63779865549688 H 0.0 **** 0.06
21583 H 91.62265456147874 12.368274618811256 120.48190482414692 H 0.0 **** 0.06
21584 H 90.81592013986923 12.603888143164795 122.05227100630691 H 0.0 **** 0.06
21585 H 90.50763905011557 13.737334567165192 120.71469301223891 H 0.0 **** 0.06
21586 C 50.66894382568585 17.107684062565795 121.73259360173104 C 0.0 **** -0.24
21587 H 49.58226528657098 17.026693125338568 121.71628697825504 H 0.0 **** 0.06
21588 H 50.9625766566967 17.907111232577506 122.41393180246958 H 0.0 **** 0.06
21589 H 51.03087365657315 17.33402461009115 120.72958289927742 H 0.0 **** 0.06
21590 H 51.09822241646091 16.16444664464899 122.07006768860964 H 0.0 **** 0.06
21591 C 89.28783499649457 12.501430940354624 4.3335090165376755 C 0.0 **** -0.24
21592 H 89.00904259157032 13.10738499604713 3.4710426581584954 H 0.0 **** 0.06
21593 H 88.3865728214467 12.139706802728568 4.82947161640692 H 0.0 **** 0.06
21594 H 89.86749478218873 13.107646872814456 5.029906534484212 H 0.0 **** 0.06
21595 H 89.88770147498175 11.653343787861019 4.003218082380386 H 0.0 **** 0.06
21596 C 101.9714166790198 84.9699661352 109.02904012590537 C 0.0 **** -0.24
21597 H 101.64681749751924 85.99263119592922 109.2199883618057 H 0.0 **** 0.06
21598 H 102.63248719598579 84.95413454957233 108.16178992643528 H 0.0 **** 0.06
21599 H 101.10134896416491 84.34329796496583 108.83357433806927 H 0.0 **** 0.06
21600 H 102.50440622930631 84.58905541462192 109.90053189274236 H 0.0 **** 0.06
21601 C 61.63081727230254 28.263688514160265 91.71021503583496 C 0.0 **** -0.24
21602 H 62.04686374652826 29.25437425407287 91.52644122089929 H 0.0 **** 0.06
21603 H 61.560693802525776 27.7191935437786 90.76872174475169 H 0.0 **** 0.06
21604 H 60.6382717201442 28.362462785267866 92.14868011597498 H 0.0 **** 0.06
21605 H 62.27915722882129 27.719685185026464 92.39737179042507 H 0.0 **** 0.06
21606 C 78.71707323046058 47.81845374522271 49.96601570631722 C 0.0 **** -0.24
21607 H 79.56562029320932 48.223415664482545 50.51851592948893 H 0.0 **** 0.06
21608 H 79.0407651929824 47.522297078214706 48.9690135182293 H 0.0 **** 0.06
21609 H 77.94127145977467 48.580526391627444 49.88566240102304 H 0.0 **** 0.06
21610 H 78.3214769497192 46.95098744276247 50.4930284486571 H 0.0 **** 0.06
21611 C 30.060050495138633 97.17340230919501 22.04357262121755 C 0.0 **** -0.24
21612 H 29.39584866544096 96.89089317109529 21.226108075498303 H 0.0 **** 0.06
21613 H 30.693626575684902 96.3263864236701 22.306285648252413 H 0.0 **** 0.06
21614 H 29.46540406530211 97.46526770648654 22.909251502264794 H 0.0 **** 0.06
21615 H 30.683302346652113 98.01166749126872 21.731902394627525 H 0.0 **** 0.06
21616 C 19.686132430922296 20.19166658089469 89.97517433081173 C 0.0 **** -0.24
21617 H 19.168632186482306 21.028778453136198 90.44225873845615 H 0.0 **** 0.06
21618 H 20.591576416229678 20.551462933645922 89.4848677269172 H 0.0 **** 0.06
21619 H 19.031906657709406 19.727952605529453 89.23539002924875 H 0.0 **** 0.06
21620 H 19.95171030846017 19.4575621346971 90.73626354504407 H 0.0 **** 0.06
21621 C 15.81463151752309 18.13056739959501 20.86539417097344 C 0.0 **** -0.24
21622 H 14.868328282444779 18.298762853087396 20.35328668925063 H 0.0 **** 0.06
21623 H 16.061617614115054 19.00407943929966 21.46912533122677 H 0.0 **** 0.06
21624 H 16.601542576074138 17.96347753606082 20.129347491782006 H 0.0 **** 0.06
21625 H 15.728381609673757 17.255808685645235 21.509400238022437 H 0.0 **** 0.06
21626 C 72.22709576037634 19.457319270992553 112.74684268994568 C 0.0 **** -0.24
21627 H 73.2035962982719 19.915496870154932 112.59108109379306 H 0.0 **** 0.06
21628 H 72.35718739120253 18.4450845306668 113.12906471986635 H 0.0 **** 0.06
21629 H 71.68853870088734 19.422085471231185 111.79936623744287 H 0.0 **** 0.06
21630 H 71.65925437890928 20.048178846624637 113.46494281352304 H 0.0 **** 0.06
21631 C 35.44931731458502 78.64180621596479 50.797049769238015 C 0.0 **** -0.24
21632 H 34.474993681811725 78.59144829986238 50.310916814718325 H 0.0 **** 0.06
21633 H 36.20847889748268 78.90870064896747 50.06097516198872 H 0.0 **** 0.06
21634 H 35.68842254792696 77.6715415574053 51.23134211101706 H 0.0 **** 0.06
21635 H 35.42417387574574 79.39583418842854 51.58285079664671 H 0.0 **** 0.06
21636 C 49.44595619323388 25.758618315306705 70.82918991096123 C 0.0 **** -0.24
21637 H 48.79944971272363 25.700507291906774 69.95356145945416 H 0.0 **** 0.06
21638 H 49.63519368579222 26.804431389539502 71.07211565305086 H 0.0 **** 0.06
21639 H 50.39142639692682 25.258409197972156 70.61539858150225 H 0.0 **** 0.06
21640 H 48.95953404623617 25.270928039287128 71.67307693879584 H 0.0 **** 0.06
21641 C 33.287052004716514 66.08824046013345 16.634894588554396 C 0.0 **** -0.24
21642 H 34.24479791089885 66.59697033632752 16.747319819643053 H 0.0 **** 0.06
21643 H 32.892663667670604 66.27496351836726 15.63554625091772 H 0.0 **** 0.06
21644 H 32.5856934461483 66.46598224659924 17.379340731106854 H 0.0 **** 0.06
21645 H 33.42575067225363 65.01677431450271 16.776646647510645 H 0.0 **** 0.06
21646 C 66.56839404979925 116.41928960640104 26.08733147286658 C 0.0 **** -0.24
21647 H 67.23940681176308 115.7244183641485 25.582360645103726 H 0.0 **** 0.06
21648 H 66.1474559718284 115.94134910734525 26.971227199637546 H 0.0 **** 0.06
21649 H 65.76281774983873 116.70279930899943 25.408825860328783 H 0.0 **** 0.06
21650 H 67.12387933350972 117.30927653788106 26.383991375248208 H 0.0 **** 0.06
21651 C 116.37803476931859 52.89857870916393 6.58400570147127 C 0.0 **** -0.24
21652 H 115.81489671724208 53.71839974844278 7.030689862890142 H 0.0 **** 0.06
21653 H 116.9142547005195 52.358801313950835 7.364222485907163 H 0.0 **** 0.06
21654 H 117.09170766607235 53.299300112254514 5.863866768842286 H 0.0 **** 0.06
21655 H 115.69264351303829 52.22043819421219 6.07674057033995 H 0.0 **** 0.06
21656 C 108.18332453031242 86.16920691302104 86.86773852778026 C 0.0 **** -0.24
21657 H 109.17802235131879 86.28614542978262 86.43734992709955 H 0.0 **** 0.06
21658 H 107.8435592757056 87.12714135331048 87.26276503543801 H 0.0 **** 0.06
21659 H 108.21999989712687 85.43531097544397 87.6729095563112 H 0.0 **** 0.06
21660 H 107.49195504754525 85.82770990179002 86.09663620246073 H 0.0 **** 0.06
21661 C 60.50813200467485 13.154200126046337 105.8329616388607 C 0.0 **** -0.24
21662 H 61.13298948522751 13.9049268934867 105.34904205588691 H 0.0 **** 0.06
21663 H 60.92456449011357 12.162981866037107 105.64962552583165 H 0.0 **** 0.06
21664 H 59.498056898621314 13.20550422138448 105.42562036305085 H 0.0 **** 0.06
21665 H 60.477653596532804 13.343045857741313 106.90524750159824 H 0.0 **** 0.06
21666 C 15.566781241923394 61.670074913136816 31.898531001032467 C 0.0 **** -0.24
21667 H 15.293651617666967 61.07970368897479 32.77219892628605 H 0.0 **** 0.06
21668 H 16.33372892196232 62.39461230372065 32.17510398613146 H 0.0 **** 0.06
21669 H 14.687839934390894 62.194997463270695 31.52498291115083 H 0.0 **** 0.06
21670 H 15.954086716248781 61.01136789650643 31.121534078742798 H 0.0 **** 0.06
21671 C 29.34583606903533 32.55418232353381 118.92858339621364 C 0.0 **** -0.24
21672 H 28.623071165638294 33.27650707145571 119.30631940404612 H 0.0 **** 0.06
21673 H 29.824721776383342 32.95377621077415 118.03425518429006 H 0.0 **** 0.06
21674 H 28.835386362191514 31.62343594846547 118.68323684066638 H 0.0 **** 0.06
21675 H 30.100991117213283 32.36377841563163 119.69137493139388 H 0.0 **** 0.06
21676 C 20.139983407859603 13.98933325615775 17.100409035528116 C 0.0 **** -0.24
21677 H 19.332491512876317 13.293590857642442 17.330785073681056 H 0.0 **** 0.06
21678 H 20.824535524514516 13.52845805618989 16.388909836004643 H 0.0 **** 0.06
21679 H 20.678149574567044 14.23579595278423 18.015626505424223 H 0.0 **** 0.06
21680 H 19.723634567602858 14.899194469693583 16.66822630150324 H 0.0 **** 0.06
21681 C 66.81978123296301 28.191705347949068 84.77061866870642 C 0.0 **** -0.24
21682 H 65.80711568343321 28.083608709523872 85.15799221206098 H 0.0 **** 0.06
21683 H 67.38344367023808 27.279543950988767 84.96828249568743 H 0.0 **** 0.06
21684 H 67.30783554136633 29.0347284257019 85.25896255361795 H 0.0 **** 0.06
21685 H 66.7808161902874 28.368382160889638 83.69507377758416 H 0.0 **** 0.06
21686 C 115.94546844875396 14.886241768062064 4.658197518705066 C 0.0 **** -0.24
21687 H 116.98393305671735 14.596510353460445 4.820831186856651 H 0.0 **** 0.06
21688 H 115.89155254026548 15.961358329769396 4.4862318996210035 H 0.0 **** 0.06
21689 H 115.35570722536116 14.629157446572066 5.538350961996514 H 0.0 **** 0.06
21690 H 115.55306170309777 14.358102750875133 3.790258159480487 H 0.0 **** 0.06
21691 C 9.082004425076235 91.3892996200286 117.74386156365944 C 0.0 **** -0.24
21692 H 9.788991258351558 90.60035975958237 118.00083282924388 H 0.0 **** 0.06
21693 H 9.56830832272857 92.11396182783086 117.09108909849813 H 0.0 **** 0.06
21694 H 8.745597614457296 91.88653229852055 118.65330413784417 H 0.0 **** 0.06
21695 H 8.224689365064322 90.95338832345901 117.22994620987582 H 0.0 **** 0.06
21696 C 80.14767121361221 48.560654136905725 41.89107875880474 C 0.0 **** -0.24
21697 H 80.8167407625313 48.413846914280214 41.0440066178526 H 0.0 **** 0.06
21698 H 79.19319202526206 48.950227188030055 41.5368965579097 H 0.0 **** 0.06
21699 H 80.59450131764997 49.26991602802906 42.58821875031957 H 0.0 **** 0.06
21700 H 79.98649047730397 47.60765769152562 42.39525756355731 H 0.0 **** 0.06
21701 C 53.27532705352586 100.31531043091914 73.80805351515193 C 0.0 **** -0.24
21702 H 52.310484966317176 99.99478548834225 74.19939498422059 H 0.0 **** 0.06
21703 H 54.061423037040015 100.04126957671559 74.5119231352653 H 0.0 **** 0.06
21704 H 53.27157851972946 101.39597969862231 73.67080369156537 H 0.0 **** 0.06
21705 H 53.458756225868 99.82776213102575 72.85029042808247 H 0.0 **** 0.06
21706 C 46.93462304549118 93.37381272244963 39.67417703887739 C 0.0 **** -0.24
21707 H 46.039795088842965 93.00918021025839 39.16924259307832 H 0.0 **** 0.06
21708 H 46.65188452928385 94.10895272097733 40.42869205188751 H 0.0 **** 0.06
21709 H 47.600062693375605 93.8379844634785 38.94576203545921 H 0.0 **** 0.06
21710 H 47.44610927144177 92.53924131433354 40.153771778661195 H 0.0 **** 0.06
21711 C 115.92262431532104 112.95865903807393 13.118838968058622 C 0.0 **** -0.24
21712 H 116.36152152038143 113.82490914943497 13.613330287451102 H 0.0 **** 0.06
21713 H 115.72437022403341 112.18075063438675 13.856860371869782 H 0.0 **** 0.06
21714 H 116.61596327693356 112.57976771628091 12.36851829501165 H 0.0 **** 0.06
21715 H 114.98939210117032 113.2494669072189 12.637256069848682 H 0.0 **** 0.06
21716 C 65.75883785474947 29.197107715332564 76.96703717913256 C 0.0 **** -0.24
21717 H 64.76516895942879 29.415380409094126 77.36013251366916 H 0.0 **** 0.06
21718 H 66.4092791264011 28.87769957056213 77.78230792264493 H 0.0 **** 0.06
21719 H 66.1697036906761 30.093784062136876 76.50260901021197 H 0.0 **** 0.06
21720 H 65.68854480623907 28.402101330457725 76.22439024837699 H 0.0 **** 0.06
21721 C 121.42707042008634 3.87346009258205 83.97879435819715 C 0.0 **** -0.24
21722 H 121.11565391488539 4.821025285109442 84.41964323540248 H 0.0 **** 0.06
21723 H 122.48491079117882 3.9235579569548804 83.71945539592372 H 0.0 **** 0.06
21724 H 120.84040305553273 3.681072070628403 83.0805978589841 H 0.0 **** 0.06
21725 H 121.26576894205117 3.0687549969818377 84.69699371617685 H 0.0 **** 0.06
21726 C 119.52687235729883 30.291037615890048 31.886559352897024 C 0.0 **** -0.24
21727 H 120.42033811625583 30.758724859938752 32.300826554911225 H 0.0 **** 0.06
21728 H 118.68948652638039 30.43975783885395 32.56880931427972 H 0.0 **** 0.06
21729 H 119.70399386671993 29.224047196388312 31.7552084162231 H 0.0 **** 0.06
21730 H 119.2957539019969 30.74267674391291 30.922132044515166 H 0.0 **** 0.06
21731 C 30.01712765489006 95.31342587079143 108.37818054542234 C 0.0 **** -0.24
21732 H 30.376535990851437 94.53234409169806 109.04748807040514 H 0.0 **** 0.06
21733 H 30.36283985929336 95.11125601767844 107.36481038268695 H 0.0 **** 0.06
21734 H 30.401272093455248 96.27918344140187 108.70819286193412 H 0.0 **** 0.06
21735 H 28.92730815877752 95.3322098628762 108.39397122816152 H 0.0 **** 0.06
21736 C 80.25677222632132 113.256273410924 102.48033934159133 C 0.0 **** -0.24
21737 H 80.95801338084033 114.08461172953908 102.58398879070671 H 0.0 **** 0.06
21738 H 79.24921530596384 113.60214637066605 102.71305956178611 H 0.0 **** 0.06
21739 H 80.5353036063863 112.45756452536924 103.1676399181531 H 0.0 **** 0.06
21740 H 80.2861026497332 112.88230459081592 101.45717722024261 H 0.0 **** 0.06
21741 C 47.34369026960863 50.8181411300666 90.02750282029673 C 0.0 **** -0.24
21742 H 46.964529235135615 51.74599167767031 90.45418760406928 H 0.0 **** 0.06
21743 H 48.404352208155785 50.929742090608 89.80152448630835 H 0.0 **** 0.06
21744 H 46.79885129890366 50.590099859171964 89.11154628903749 H 0.0 **** 0.06
21745 H 47.20794222856162 50.006500998155175 90.74308757010274 H 0.0 **** 0.06
21746 C 33.02074439983616 35.815624565410275 94.34369542163415 C 0.0 **** -0.24
21747 H 31.953394957271428 35.90082440438377 94.14024554982856 H 0.0 **** 0.06
21748 H 33.44936497108239 36.81146197497682 94.460601447198 H 0.0 **** 0.06
21749 H 33.510243934935204 35.30404708189124 93.51497991560743 H 0.0 **** 0.06
21750 H 33.170569549966956 35.245972676157976 95.26110148351975 H 0.0 **** 0.06
21751 C 49.01301310400231 14.169181036484954 79.52237346591835 C 0.0 **** -0.24
21752 H 48.46632598404466 13.91481672311567 78.61391722774147 H 0.0 **** 0.06
21753 H 48.8487795952164 13.397313962170792 80.27411695193382 H 0.0 **** 0.06
21754 H 48.65838502905399 15.127765906535139 79.90111702284332 H 0.0 **** 0.06
21755 H 50.077136657269875 14.23863462487682 79.29795434974278 H 0.0 **** 0.06
21756 C 120.38812722947392 27.44234314249686 25.441857445190408 C 0.0 **** -0.24
21757 H 120.36953094305119 26.393479084430318 25.74183944267577 H 0.0 **** 0.06
21758 H 121.31064464524599 27.903877327260034 25.79447130808822 H 0.0 **** 0.06
21759 H 119.53336248999898 27.958893406984117 25.87764148732299 H 0.0 **** 0.06
21760 H 120.3398117661983 27.509963073645693 24.35529689152105 H 0.0 **** 0.06
21761 C 99.22897948203234 83.21950429270828 106.36469368556183 C 0.0 **** -0.24
21762 H 99.3462329280311 83.86116992928162 107.23761207428912 H 0.0 **** 0.06
21763 H 99.7976272610967 82.30132851718236 106.5102843065643 H 0.0 **** 0.06
21764 H 99.59744977358815 83.7394445150681 105.48036087537422 H 0.0 **** 0.06
21765 H 98.17489176303292 82.97769057909237 106.23107153338266 H 0.0 **** 0.06
21766 C 45.78561951235898 44.37151941489651 30.211826826149746 C 0.0 **** -0.24
21767 H 45.44161048471602 43.61742048070063 29.504003904066337 H 0.0 **** 0.06
21768 H 46.86491423382594 44.28555469066424 30.338107004453278 H 0.0 **** 0.06
21769 H 45.293737931471554 44.216933262271965 31.172729733096332 H 0.0 **** 0.06
21770 H 45.54185124448617 45.363231390425724 29.83295348557465 H 0.0 **** 0.06
21771 C 121.09508488009322 77.36026667926606 8.807530884579656 C 0.0 **** -0.24
21772 H 121.56594690735031 76.40556919025917 9.04104178473051 H 0.0 **** 0.06
21773 H 121.85598045365256 78.13918761995708 8.763318032667193 H 0.0 **** 0.06
21774 H 120.3682141734994 77.6046789815783 9.58270012786187 H 0.0 **** 0.06
21775 H 120.58962846775273 77.29053987454611 7.8442823704393305 H 0.0 **** 0.06
21776 C 82.2637202647234 112.26208930104642 29.654496251732695 C 0.0 **** -0.24
21777 H 83.09415415350897 111.57301322751238 29.50026125117219 H 0.0 **** 0.06
21778 H 82.65389322016804 113.25482233529885 29.880991164743563 H 0.0 **** 0.06
21779 H 81.65128714484446 111.91198479438867 30.48508350426644 H 0.0 **** 0.06
21780 H 81.65819394565771 112.30752877788643 28.749418450280075 H 0.0 **** 0.06
21781 C 58.49131093008637 57.60858639934631 56.947866521522684 C 0.0 **** -0.24
21782 H 57.627625420658404 58.164408700217066 56.58070483599289 H 0.0 **** 0.06
21783 H 58.548808811521354 57.70230040407483 58.03232462947511 H 0.0 **** 0.06
21784 H 59.39909908929812 58.01200637490051 56.499332594812074 H 0.0 **** 0.06
21785 H 58.38835826448283 56.558336589901685 56.67774485939111 H 0.0 **** 0.06
21786 C 32.40477040049706 1.9256968049384113 109.53806378893574 C 0.0 **** -0.24
21787 H 32.14349100913944 1.780590292200543 108.48996318666366 H 0.0 **** 0.06
21788 H 33.1389124250731 2.7281268247984514 109.62133652567093 H 0.0 **** 0.06
21789 H 32.82683826150992 1.0040019356565608 109.93732553326839 H 0.0 **** 0.06
21790 H 31.510394715847042 2.1912723518111505 110.10157018995301 H 0.0 **** 0.06
21791 C 26.851749596243906 96.8483011818641 76.2910047856601 C 0.0 **** -0.24
21792 H 27.342349373075614 97.80306509582263 76.47802186581805 H 0.0 **** 0.06
21793 H 26.23200873806737 96.58557705171017 77.148793250361 H 0.0 **** 0.06
21794 H 27.606579471825086 96.07625800070727 76.13741128799316 H 0.0 **** 0.06
21795 H 26.22761835580326 96.92759174163407 75.40154379828945 H 0.0 **** 0.06
21796 C 51.99144187651325 23.86722147241244 0.819357887685463 C 0.0 **** -0.24
21797 H 53.05708729454119 23.647818889900748 0.748230578460511 H 0.0 **** 0.06
21798 H 51.419876390054355 22.962754443229272 0.6142678451343144 H 0.0 **** 0.06
21799 H 51.73081101464152 24.636168770803295 0.09174786768241461 H 0.0 **** 0.06
21800 H 51.760878003255186 24.22452114946566 1.8230286266368143 H 0.0 **** 0.06
21801 C 42.62952408772273 55.27308629599058 93.39395875311882 C 0.0 **** -0.24
21802 H 42.11052661307721 55.24783422978774 94.35223933415958 H 0.0 **** 0.06
21803 H 43.27193303759856 56.153070723851684 93.35191242266055 H 0.0 **** 0.06
21804 H 41.89980735180245 55.3170174496949 92.58605022233314 H 0.0 **** 0.06
21805 H 43.23643019718986 54.37413581491144 93.28688072666247 H 0.0 **** 0.06
21806 C 62.36641185220007 93.17531149672709 16.17621889969587 C 0.0 **** -0.24
21807 H 63.103194006406724 93.52275588865965 16.89988741064508 H 0.0 **** 0.06
21808 H 61.63429339869893 92.54340330278939 16.678227136144756 H 0.0 **** 0.06
21809 H 62.86642221703433 92.60177818518788 15.395401436525276 H 0.0 **** 0.06
21810 H 61.862122938726415 94.03269753038738 15.730668028246441 H 0.0 **** 0.06
21811 C 47.381354594296305 55.068570530275366 39.94859414880167 C 0.0 **** -0.24
21812 H 46.297149383596064 55.18874730736337 39.93735066640129 H 0.0 **** 0.06
21813 H 47.71340333096828 54.85897665196633 40.96580395635111 H 0.0 **** 0.06
21814 H 47.85102656659423 55.98585844321853 39.5938184195592 H 0.0 **** 0.06
21815 H 47.66080345517583 54.24070766865184 39.29651734882308 H 0.0 **** 0.06
21816 C 37.84978664539051 88.60134045708803 114.29217027021646 C 0.0 **** -0.24
21817 H 38.57317432897119 87.85669060833223 114.62551035525273 H 0.0 **** 0.06
21818 H 36.84111447096956 88.2062438756218 114.41066843047692 H 0.0 **** 0.06
21819 H 38.02849282536695 88.836633913775 113.24288203127075 H 0.0 **** 0.06
21820 H 37.9587500451598 89.50556377551963 114.89142555942594 H 0.0 **** 0.06
21821 C 71.04840777060446 82.21046298270949 61.75961496901181 C 0.0 **** -0.24
21822 H 70.27553482514766 82.9674197662857 61.63075659064458 H 0.0 **** 0.06
21823 H 71.28964774521278 82.1148136763329 62.81895592897729 H 0.0 **** 0.06
21824 H 71.94177183477073 82.50447142526879 61.209003154045604 H 0.0 **** 0.06
21825 H 70.68662835285284 81.2538950086212 61.38159630735106 H 0.0 **** 0.06
21826 C 91.32191604738864 34.92728314179078 23.378387473617806 C 0.0 **** -0.24
21827 H 91.16922675257797 34.87718608227715 22.299939972694176 H 0.0 **** 0.06
21828 H 90.35819301989142 35.025500637756636 23.877885167633735 H 0.0 **** 0.06
21829 H 91.9453726733945 35.78882973629828 23.61621088889177 H 0.0 **** 0.06
21830 H 91.81612296056153 34.0164494056242 23.717760703238184 H 0.0 **** 0.06
21831 C 16.323144028474616 54.13820826906742 37.31604282240113 C 0.0 **** -0.24
21832 H 16.228075225139605 54.22285092793304 36.23376410631815 H 0.0 **** 0.06
21833 H 15.379555096456883 53.79043236577455 37.73808147754201 H 0.0 **** 0.06
21834 H 16.572624240215262 55.11240210025579 37.73704606898076 H 0.0 **** 0.06
21835 H 17.112913017464436 53.425380268724155 37.55651522814219 H 0.0 **** 0.06
21836 C 107.23220926353494 31.620031518970407 86.44425333299127 C 0.0 **** -0.24
21837 H 106.86047848902948 30.88981712944488 85.72423598884284 H 0.0 **** 0.06
21838 H 107.8082147813784 32.38386339663777 85.92229817271044 H 0.0 **** 0.06
21839 H 107.86783165393076 31.11877517075998 87.17316407916346 H 0.0 **** 0.06
21840 H 106.38923497751237 32.08544542304842 86.95542256123233 H 0.0 **** 0.06
21841 C 84.54386705801011 7.357734497197974 66.62579164298977 C 0.0 **** -0.24
21842 H 85.25271683402215 6.584659758317699 66.32818589492587 H 0.0 **** 0.06
21843 H 83.9088214338214 6.978750091644873 67.42775715822178 H 0.0 **** 0.06
21844 H 83.92585636456988 7.631372191069833 65.77095957008144 H 0.0 **** 0.06
21845 H 85.08901055662315 8.23349319598396 66.97608424464393 H 0.0 **** 0.06
21846 C 77.80714107453099 76.51472987199358 61.731144434706366 C 0.0 **** -0.24
21847 H 77.88932305946065 75.73278805333663 62.48514559233293 H 0.0 **** 0.06
21848 H 78.75925715840538 77.04024785846752 61.6462114458822 H 0.0 **** 0.06
21849 H 77.0282694722863 77.21998112413252 62.022212192909194 H 0.0 **** 0.06
21850 H 77.55180383395839 76.067274119526 60.770675830271315 H 0.0 **** 0.06
21851 C 26.47983167050296 38.497125640038334 94.06625469584145 C 0.0 **** -0.24
21852 H 27.301165184752506 37.834159430073846 93.79424041312348 H 0.0 **** 0.06
21853 H 26.772083189397094 39.105778408327836 94.9224413627054 H 0.0 **** 0.06
21854 H 25.60393718462413 37.903227896668966 94.32492815447364 H 0.0 **** 0.06
21855 H 26.242544121742952 39.14669216120941 93.22338122272083 H 0.0 **** 0.06
21856 C 118.6218545292132 113.84917659404397 55.3814991050848 C 0.0 **** -0.24
21857 H 119.47741177245659 113.31610223734265 54.96653133065141 H 0.0 **** 0.06
21858 H 118.93532460039687 114.40513803795727 56.26603524529722 H 0.0 **** 0.06
21859 H 117.84644040432958 113.13397824530223 55.65766031573375 H 0.0 **** 0.06
21860 H 118.22885237392018 114.5410025615404 54.636949034525315 H 0.0 **** 0.06
21861 C 11.47601589502483 26.603234352165032 35.21253663470725 C 0.0 **** -0.24
21862 H 11.879663388858262 26.33678841808475 34.23648290066407 H 0.0 **** 0.06
21863 H 10.466474074748362 26.997423802496087 35.09190184867484 H 0.0 **** 0.06
21864 H 12.109803588461602 27.361959608010835 35.67204384254151 H 0.0 **** 0.06
21865 H 11.448127499338739 25.718793633246037 35.84877601079728 H 0.0 **** 0.06
21866 C 14.404989766253408 55.90391115854237 85.17452478370639 C 0.0 **** -0.24
21867 H 15.226349192035514 55.27171998081275 85.51275510081639 H 0.0 **** 0.06
21868 H 14.323570608579757 56.772954509260174 85.82656483190111 H 0.0 **** 0.06
21869 H 13.474316737394815 55.33725795700376 85.20654944281978 H 0.0 **** 0.06
21870 H 14.595168326690725 56.231927128716066 84.15294154795149 H 0.0 **** 0.06
21871 C 113.34453601131077 46.00064096625812 77.18391430600514 C 0.0 **** -0.24
21872 H 112.27257858561003 45.812505661110265 77.23344237089793 H 0.0 **** 0.06
21873 H 113.61527128748168 46.292516058702944 76.16868176820782 H 0.0 **** 0.06
21874 H 113.88485313144992 45.09446582198325 77.45750106782828 H 0.0 **** 0.06
21875 H 113.6055652932844 46.802507468222785 77.87474319106377 H 0.0 **** 0.06
21876 C 4.599080948659175 108.86970172331826 100.3350723267337 C 0.0 **** -0.24
21877 H 3.851217842195222 108.1493004880752 100.00204289949717 H 0.0 **** 0.06
21878 H 4.3761628031676025 109.17745171855645 101.35760655526605 H 0.0 **** 0.06
21879 H 4.579878341562921 109.7417082418188 99.68069044611502 H 0.0 **** 0.06
21880 H 5.586940526434304 108.41061750133645 100.30059300961605 H 0.0 **** 0.06
21881 C 101.5458334222908 5.543022675040021 101.63845197414034 C 0.0 **** -0.24
21882 H 101.1405913785797 5.647084588934007 100.63214501810282 H 0.0 **** 0.06
21883 H 102.47503479736832 4.973531264945677 101.59878952170953 H 0.0 **** 0.06
21884 H 100.82543312095879 5.018890595726532 102.26783799902486 H 0.0 **** 0.06
21885 H 101.74151573864356 6.530480869814994 102.05505776935144 H 0.0 **** 0.06
21886 C 35.83080016954667 98.89272655621139 115.00740233322881 C 0.0 **** -0.24
21887 H 35.92301865699491 99.9465638820673 115.26710074187037 H 0.0 **** 0.06
21888 H 36.693510879695296 98.34729375413161 115.39075990744743 H 0.0 **** 0.06
21889 H 35.78682214857864 98.7875970377446 113.92342474155464 H 0.0 **** 0.06
21890 H 34.91941710638051 98.48855760683784 115.44820397682659 H 0.0 **** 0.06
21891 C 8.289481882603091 58.73234953732167 118.84467218324836 C 0.0 **** -0.24
21892 H 8.384485825239292 57.75518836593591 118.37328816332065 H 0.0 **** 0.06
21893 H 7.623588460510575 58.657826999025175 119.70486523804347 H 0.0 **** 0.06
21894 H 7.878845819966589 59.44424854316132 118.12802541879925 H 0.0 **** 0.06
21895 H 9.271173010351738 59.07365334822346 119.17332542248953 H 0.0 **** 0.06
21896 C 106.15150218633107 72.68458269218098 62.332336320094385 C 0.0 **** -0.24
21897 H 106.44920795124256 72.29399106471055 63.30580804776969 H 0.0 **** 0.06
21898 H 106.83616702054053 72.31516861406243 61.56882272151449 H 0.0 **** 0.06
21899 H 106.1832727541256 73.77375621481593 62.35372224122881 H 0.0 **** 0.06
21900 H 105.13792563202901 72.35528502756526 62.10410111023435 H 0.0 **** 0.06
21901 C 10.769319999377501 7.723630361475784 32.75370243692189 C 0.0 **** -0.24
21902 H 10.963422079373572 8.758296732975282 33.038559693091145 H 0.0 **** 0.06
21903 H 10.263028253988182 7.70305306780574 31.788983350889332 H 0.0 **** 0.06
21904 H 10.13736919093941 7.253339037095316 33.50671965085433 H 0.0 **** 0.06
21905 H 11.713013845436706 7.183848510703228 32.68218231068571 H 0.0 **** 0.06
21906 C 94.77428575657626 99.70803290520448 121.56824360670538 C 0.0 **** -0.24
21907 H 95.84614466633255 99.89361402087704 121.49879696233353 H 0.0 **** 0.06
21908 H 94.41384964824277 100.02552128637049 122.54694308639375 H 0.0 **** 0.06
21909 H 94.58068633729522 98.64305814049041 121.43760764138426 H 0.0 **** 0.06
21910 H 94.25728381323216 100.26889444994103 120.79011252221648 H 0.0 **** 0.06
21911 C 68.65870653550346 27.859555909171412 18.504709933014794 C 0.0 **** -0.24
21912 H 68.12293667118976 26.91096651171211 18.52825729585976 H 0.0 **** 0.06
21913 H 69.72581517520348 27.67693477552033 18.635848951716696 H 0.0 **** 0.06
21914 H 68.29753830128655 28.50110338564091 19.30848729527918 H 0.0 **** 0.06
21915 H 68.48822817289616 28.348204633421453 17.54530998032311 H 0.0 **** 0.06
21916 C 56.38973368067377 49.56234454305769 11.322429266625793 C 0.0 **** -0.24
21917 H 55.51714648855972 49.003355598369865 11.659931328698107 H 0.0 **** 0.06
21918 H 56.32126712468454 49.726960151540766 10.246812339794616 H 0.0 **** 0.06
21919 H 57.29269114354304 48.99449450626577 11.546792508319896 H 0.0 **** 0.06
21920 H 56.42780004311447 50.52271349835695 11.835432254850346 H 0.0 **** 0.06
21921 C 0.5159336913790895 48.22583755702489 27.119092906861816 C 0.0 **** -0.24
21922 H -0.15365354838900203 47.55946963917967 27.66267953429913 H 0.0 **** 0.06
21923 H 1.069865530075603 47.654153330528715 26.374355113547374 H 0.0 **** 0.06
21924 H 1.214300310845175 48.68784914592595 27.816604226935787 H 0.0 **** 0.06
21925 H -0.06803195027413267 49.0008366576229 26.622147983504767 H 0.0 **** 0.06
21926 C 115.84761058588843 99.6305910759165 91.12149976694226 C 0.0 **** -0.24
21927 H 115.38940496707237 100.58064238148367 90.84471846098216 H 0.0 **** 0.06
21928 H 116.92972342700516 99.75092495502909 91.17461542059962 H 0.0 **** 0.06
21929 H 115.6010219229183 98.8780363971645 90.37281814529618 H 0.0 **** 0.06
21930 H 115.46796798019126 99.31464258974697 92.09360768189393 H 0.0 **** 0.06
21931 C 122.92700714504436 35.25093303261548 65.25605977962647 C 0.0 **** -0.24
21932 H 122.52156360660167 35.07882482035413 64.25827919940818 H 0.0 **** 0.06
21933 H 123.97829714906061 34.96233792808434 65.27489964146548 H 0.0 **** 0.06
21934 H 122.3727394765776 34.65430555428907 65.98080023537514 H 0.0 **** 0.06
21935 H 122.83489763966314 36.30696868553369 65.50851613184483 H 0.0 **** 0.06
21936 C 60.28348599649192 8.79963630467779 103.36415971187486 C 0.0 **** -0.24
21937 H 60.19763506498772 7.86960098440818 102.80228639501014 H 0.0 **** 0.06
21938 H 60.80541330931477 9.541892591804697 102.7592719102893 H 0.0 **** 0.06
21939 H 60.84322656184521 8.620120056508824 104.28137618279578 H 0.0 **** 0.06
21940 H 59.287804567970085 9.167583915775708 103.61156979415577 H 0.0 **** 0.06
21941 C 15.540019938572811 9.101644136925245 1.6207662160790761 C 0.0 **** -0.24
21942 H 16.428337105682147 9.59548330455257 2.015285192143665 H 0.0 **** 0.06
21943 H 15.0728902886774 8.509840371629416 2.408707815764771 H 0.0 **** 0.06
21944 H 15.824798606752665 8.44871390797988 0.7956717133385496 H 0.0 **** 0.06
21945 H 14.834792191236318 9.851980917287168 1.2630215308136172 H 0.0 **** 0.06
21946 C 108.84317122122616 17.410510604229465 94.13681429816131 C 0.0 **** -0.24
21947 H 109.9012727669868 17.437635083582244 94.3946320979403 H 0.0 **** 0.06
21948 H 108.52536961698456 18.397237256428287 93.79809696983784 H 0.0 **** 0.06
21949 H 108.26268743051307 17.1229487456103 95.01312898209372 H 0.0 **** 0.06
21950 H 108.68198467175915 16.684201129512875 93.33963226204261 H 0.0 **** 0.06
21951 C 11.806374394089875 64.12548472386601 87.10084743711842 C 0.0 **** -0.24
21952 H 12.367591227656469 64.02458152304649 86.17171831033369 H 0.0 **** 0.06
21953 H 10.872297883920233 63.57036135573384 87.02300302643421 H 0.0 **** 0.06
21954 H 11.591089039617692 65.17852539194132 87.2822455545907 H 0.0 **** 0.06
21955 H 12.397489109018274 63.72938482387394 87.9270108656162 H 0.0 **** 0.06
21956 C 113.38553554250377 74.24360942139921 122.52307781387616 C 0.0 **** -0.24
21957 H 114.28947732588847 74.55643296023577 121.99932361921427 H 0.0 **** 0.06
21958 H 112.68956812753855 73.79927906283348 121.81094254472694 H 0.0 **** 0.06
21959 H 112.92052036185315 75.11004781209931 122.99377742716689 H 0.0 **** 0.06
21960 H 113.64412677986222 73.5099478889292 123.28627176532045 H 0.0 **** 0.06
21961 C 120.76165081528274 32.729757993636156 49.729870976221775 C 0.0 **** -0.24
21962 H 121.26279581059669 32.25203529474575 48.88746758573717 H 0.0 **** 0.06
21963 H 121.32820196740153 32.54247051839016 50.6420562110614 H 0.0 **** 0.06
21964 H 119.75693200606486 32.32059711319431 49.833891038778006 H 0.0 **** 0.06
21965 H 120.70074019588213 33.80387765885769 49.55475516131517 H 0.0 **** 0.06
21966 C 81.90427941450035 24.82030360740248 66.83136174799589 C 0.0 **** -0.24
21967 H 82.57025620864377 25.34763112970645 67.51427191310941 H 0.0 **** 0.06
21968 H 81.28346459287755 24.124468134549296 67.39658003406358 H 0.0 **** 0.06
21969 H 82.49576818697092 24.268693588001433 66.1000299678914 H 0.0 **** 0.06
21970 H 81.26828246844686 25.539909279766803 66.31664121907495 H 0.0 **** 0.06
21971 C 107.69710971804989 7.490670712873396 42.3777929874725 C 0.0 **** -0.24
21972 H 107.0872574017055 7.837485205160505 41.54382143751343 H 0.0 **** 0.06
21973 H 108.70578618546816 7.893961782979176 42.28292014655068 H 0.0 **** 0.06
21974 H 107.73815615067096 6.4013406194430615 42.36815650016172 H 0.0 **** 0.06
21975 H 107.25592103185778 7.828732165826068 43.315319889946124 H 0.0 **** 0.06
21976 C 21.16021562314264 103.84068440923876 95.49688860207947 C 0.0 **** -0.24
21977 H 20.949665994759172 102.85016386175538 95.09496753135237 H 0.0 **** 0.06
21978 H 20.557295482822596 104.58107166714653 94.9704593495389 H 0.0 **** 0.06
21979 H 22.216910590437962 104.06963092657749 95.36348741613709 H 0.0 **** 0.06
21980 H 20.915811111749967 103.8611040800145 96.55878462396373 H 0.0 **** 0.06
21981 C 55.085618064917924 82.18801488076508 32.11962441203892 C 0.0 **** -0.24
21982 H 55.6000733844933 81.4557412506154 31.496728109291183 H 0.0 **** 0.06
21983 H 54.41758879429884 82.78643068222897 31.500156794368394 H 0.0 **** 0.06
21984 H 55.82032678156935 82.8380061622953 32.595925995893225 H 0.0 **** 0.06
21985 H 54.50776122690873 81.67198933646563 32.88519264712892 H 0.0 **** 0.06
21986 C 31.62073609077133 117.94672214442878 6.134711859274773 C 0.0 **** -0.24
21987 H 31.001987573322225 118.25840968017758 6.976124274429083 H 0.0 **** 0.06
21988 H 30.998282313411607 117.44988916680012 5.390787821711115 H 0.0 **** 0.06
21989 H 32.388783026686625 117.25774803889493 6.485807686148178 H 0.0 **** 0.06
21990 H 32.09356416855589 118.8214674616747 5.68847320824986 H 0.0 **** 0.06
21991 C 99.65097063612646 6.676244287881399 39.75083972564744 C 0.0 **** -0.24
21992 H 100.4157934015025 6.326310385111899 39.058535578090755 H 0.0 **** 0.06
21993 H 99.94329353522147 6.424777490112561 40.7711718130285 H 0.0 **** 0.06
21994 H 98.70132933042461 6.1957356063448294 39.51613248665461 H 0.0 **** 0.06
21995 H 99.54416010599606 7.756790075730926 39.65880721234208 H 0.0 **** 0.06
21996 C 2.4265216764315465 68.99299393900742 61.69875637610349 C 0.0 **** -0.24
21997 H 2.447643420124116 69.1170236658831 62.78240360379661 H 0.0 **** 0.06
21998 H 3.443150443404111 68.85729176094407 61.3296444947739 H 0.0 **** 0.06
21999 H 1.987659998909539 69.87879359849865 61.240686465630944 H 0.0 **** 0.06
22000 H 1.8274297870597547 68.11808598262667 61.445180522054585 H 0.0 **** 0.06
22001 C 3.150257117944818 66.1764852558519 37.90237915688425 C 0.0 **** -0.24
22002 H 4.138697925812011 66.6186232510781 37.77416248660745 H 0.0 **** 0.06
22003 H 2.5480836117338868 66.81492141311261 38.547765068839055 H 0.0 **** 0.06
22004 H 3.2508136320453787 65.1905119727908 38.35740645727151 H 0.0 **** 0.06
22005 H 2.6666442034489535 66.08058467965846 36.93022158784635 H 0.0 **** 0.06
22006 C 118.03647034062763 15.529364460642114 113.33822766952285 C 0.0 **** -0.24
22007 H 118.43122365710012 14.818463564299421 114.06367195296893 H 0.0 **** 0.06
22008 H 117.89726508345396 15.029824618716702 112.3792059916484 H 0.0 **** 0.06
22009 H 118.73767811870441 16.35507263899413 113.22048930358393 H 0.0 **** 0.06
22010 H 117.07900854074005 15.91358219230267 113.6906554892621 H 0.0 **** 0.06
22011 C 4.798223874744707 12.221894719734905 92.58023637230889 C 0.0 **** -0.24
22012 H 4.539412723605167 12.996165140045207 93.30315259433723 H 0.0 **** 0.06
22013 H 4.28270888684769 12.41665899017977 91.63910728788966 H 0.0 **** 0.06
22014 H 4.4946137169899245 11.248324406243228 92.96666811354953 H 0.0 **** 0.06
22015 H 5.875428717280176 12.225760129081493 92.41302541008776 H 0.0 **** 0.06
22016 C 100.64161638313223 84.4291538837481 9.331129012525167 C 0.0 **** -0.24
22017 H 99.76534605196267 83.90847948023982 9.716294089442783 H 0.0 **** 0.06
22018 H 100.6183861308368 85.46954427648464 9.656811284664059 H 0.0 **** 0.06
22019 H 100.63915114249252 84.38994001024487 8.241899516784287 H 0.0 **** 0.06
22020 H 101.54422763414044 83.94989155027488 9.709726731306404 H 0.0 **** 0.06
22021 C 66.8803107448334 34.31559322710609 33.30028512975307 C 0.0 **** -0.24
22022 H 67.38220361441748 34.71411201053235 32.418663313599374 H 0.0 **** 0.06
22023 H 66.91778494229285 35.051547264379735 34.10373710190797 H 0.0 **** 0.06
22024 H 67.3807248447003 33.401387738446886 33.620345730625374 H 0.0 **** 0.06
22025 H 65.84051650737146 34.09450354729864 33.057243859707334 H 0.0 **** 0.06
22026 C 44.149555839313855 104.67056484948202 37.40464556544532 C 0.0 **** -0.24
22027 H 43.42371090762793 105.02345752013943 36.67163148855826 H 0.0 **** 0.06
22028 H 43.89488167922463 105.06608150118568 38.38754908022281 H 0.0 **** 0.06
22029 H 45.14569103285639 105.01172830624103 37.12195332056649 H 0.0 **** 0.06
22030 H 44.133706352384 103.5813108615007 37.435761937007214 H 0.0 **** 0.06
22031 C 45.616439091064535 102.04340110766 29.34692433663787 C 0.0 **** -0.24
22032 H 46.25463412589119 102.91388176794206 29.497523817392334 H 0.0 **** 0.06
22033 H 44.89065935560819 101.98129197188067 30.157927388816177 H 0.0 **** 0.06
22034 H 46.22839006998581 101.1411591414803 29.33578116742268 H 0.0 **** 0.06
22035 H 45.091569667338746 102.13781423844162 28.395792375840642 H 0.0 **** 0.06
22036 C 86.63224721785573 52.6095067258662 33.90653784068127 C 0.0 **** -0.24
22037 H 87.35950035736889 52.666232392938525 34.716090645645494 H 0.0 **** 0.06
22038 H 85.73163120875753 53.154336898118515 34.18912690401069 H 0.0 **** 0.06
22039 H 86.38159593352268 51.56598522211749 33.71617369873226 H 0.0 **** 0.06
22040 H 87.05688919464609 53.05216273535433 33.00582283225825 H 0.0 **** 0.06
22041 C 60.53967178110315 92.36436389608913 117.21381410031205 C 0.0 **** -0.24
22042 H 59.4871056913035 92.59957737296398 117.3695186916647 H 0.0 **** 0.06
22043 H 61.07383526554645 92.4466997030844 118.16068839231076 H 0.0 **** 0.06
22044 H 60.96541571083793 93.06400589919085 116.49411908584531 H 0.0 **** 0.06
22045 H 60.631362967489 91.34792319064077 116.83163783244746 H 0.0 **** 0.06
22046 C 21.394339020371454 51.33649956825889 90.40690209507022 C 0.0 **** -0.24
22047 H 21.46163301489311 51.80104606985378 91.39050046680654 H 0.0 **** 0.06
22048 H 22.330869406302227 51.48875933583315 89.86903539660875 H 0.0 **** 0.06
22049 H 20.575381740094784 51.78851560772932 89.84646723397952 H 0.0 **** 0.06
22050 H 21.210939949260258 50.26844287800509 90.5210964803467 H 0.0 **** 0.06
22051 C 122.46260451633023 82.34136908148756 70.02063397790357 C 0.0 **** -0.24
22052 H 122.74783139741501 82.22459627598275 71.06588677761556 H 0.0 **** 0.06
22053 H 122.82776096772831 81.48931973493526 69.44661793049931 H 0.0 **** 0.06
22054 H 122.89778551058126 83.25988232724146 69.6258154485792 H 0.0 **** 0.06
22055 H 121.37608264848983 82.39271283949196 69.94432667937082 H 0.0 **** 0.06
22056 C 42.63867179223922 63.20442087594151 89.33840080232902 C 0.0 **** -0.24
22057 H 42.88608418240452 63.921371731608204 88.55491606142964 H 0.0 **** 0.06
22058 H 43.48737977670916 63.0983300215173 90.01475370107049 H 0.0 **** 0.06
22059 H 42.4098724178111 62.238972355048276 88.88758189849273 H 0.0 **** 0.06
22060 H 41.77250673350824 63.55965587504991 89.89585559382664 H 0.0 **** 0.06
22061 C 19.582893756517905 39.03986736077127 28.713665968182127 C 0.0 **** -0.24
22062 H 19.213062776394054 39.24716193691131 29.717563713296087 H 0.0 **** 0.06
22063 H 20.255018963765792 39.83899818027123 28.401348284453675 H 0.0 **** 0.06
22064 H 18.741654507018296 38.98211054972677 28.022193308333883 H 0.0 **** 0.06
22065 H 20.119908716199745 38.09206207047754 28.712830659325334 H 0.0 **** 0.06
22066 C 8.71162418898956 43.64705444538831 40.72274048572555 C 0.0 **** -0.24
22067 H 9.43905421286695 44.117415867314065 40.061215433125085 H 0.0 **** 0.06
22068 H 9.20188102445212 43.352509291777636 41.65067372598875 H 0.0 **** 0.06
22069 H 8.294056247786372 42.766303584349345 40.23634705939955 H 0.0 **** 0.06
22070 H 7.910797355076042 44.3540326847687 40.94215771759846 H 0.0 **** 0.06
22071 C 24.90822490950012 54.12512446678872 31.086744781855117 C 0.0 **** -0.24
22072 H 24.513458049570716 53.496324945118346 30.28890521308159 H 0.0 **** 0.06
22073 H 25.145973605655904 55.11123656031398 30.68896198472902 H 0.0 **** 0.06
22074 H 25.810743605834844 53.66968689458547 31.494757460133314 H 0.0 **** 0.06
22075 H 24.162123101292096 54.221457969566615 31.87554999119064 H 0.0 **** 0.06
22076 C 62.77751229472318 6.102444776541773 64.48889141906258 C 0.0 **** -0.24
22077 H 63.363449603690185 6.518265306615319 65.3092227674745 H 0.0 **** 0.06
22078 H 63.0692316869127 5.06486908526125 64.32510738790295 H 0.0 **** 0.06
22079 H 62.96079043551015 6.680404622170073 63.58296081482955 H 0.0 **** 0.06
22080 H 61.718181204129905 6.14746329514162 64.74049557042217 H 0.0 **** 0.06
22081 C 99.18850257305297 41.805106839212726 39.09020689304458 C 0.0 **** -0.24
22082 H 99.44139164346728 42.798913859304434 38.721259184212244 H 0.0 **** 0.06
22083 H 98.34047860457136 41.87656576692882 39.77248672295613 H 0.0 **** 0.06
22084 H 100.04479405648425 41.385204751332935 39.61785434322044 H 0.0 **** 0.06
22085 H 98.92744201968716 41.161251365224416 38.25053719361779 H 0.0 **** 0.06
22086 C 20.309269936036507 27.738688964379662 33.18323088254658 C 0.0 **** -0.24
22087 H 20.04211124989957 28.576791973105585 32.540315461869795 H 0.0 **** 0.06
22088 H 19.499309165013837 27.008051378823232 33.183494894818296 H 0.0 **** 0.06
22089 H 20.476038321813462 28.098226333865405 34.19853078028132 H 0.0 **** 0.06
22090 H 21.220304091133876 27.270307231910053 32.809787357055484 H 0.0 **** 0.06
22091 C 121.74917619477128 120.80528558995921 94.34744654081197 C 0.0 **** -0.24
22092 H 122.28161705047421 120.699789959731 95.29268202137987 H 0.0 **** 0.06
22093 H 121.61218264029829 119.82192941326394 93.89666150441693 H 0.0 **** 0.06
22094 H 122.32684658108359 121.43780236446447 93.67326023657563 H 0.0 **** 0.06
22095 H 120.77547343109521 121.26158200749381 94.52846937486737 H 0.0 **** 0.06
22096 C 82.42381234334883 77.25654128512383 36.01439496298764 C 0.0 **** -0.24
22097 H 83.19340305877981 77.81241887098984 35.47985694914652 H 0.0 **** 0.06
22098 H 81.53099827339159 77.87407053253037 36.11354324684527 H 0.0 **** 0.06
22099 H 82.79177377016319 76.9887356425009 37.00504992573815 H 0.0 **** 0.06
22100 H 82.1798483870194 76.35026585934722 35.46010248852741 H 0.0 **** 0.06
22101 C 34.56084837872426 96.45705652700693 30.078083328648972 C 0.0 **** -0.24
22102 H 34.69736867072115 97.53060599336766 30.209774182271758 H 0.0 **** 0.06
22103 H 35.506677096361926 95.94592464796936 30.260140995139864 H 0.0 **** 0.06
22104 H 34.22872350528934 96.25532603624511 29.059950450538963 H 0.0 **** 0.06
22105 H 33.811462784679264 96.0973012618744 30.7831223961158 H 0.0 **** 0.06
22106 C 119.58093962567162 79.20869927170558 74.08323750990621 C 0.0 **** -0.24
22107 H 119.0156398803004 79.11233133404293 73.1563399322342 H 0.0 **** 0.06
22108 H 120.64659843025066 79.11858142480587 73.869736083845 H 0.0 **** 0.06
22109 H 119.28032170732405 78.42199424517958 74.77522506511167 H 0.0 **** 0.06
22110 H 119.38057342527478 80.18260605713535 74.53060168169588 H 0.0 **** 0.06
22111 C 14.037283594292454 79.44118241276826 68.34677722276155 C 0.0 **** -0.24
22112 H 12.964058625259643 79.31278580580533 68.48824168948289 H 0.0 **** 0.06
22113 H 14.573230490581537 78.85949925509073 69.09690410887583 H 0.0 **** 0.06
22114 H 14.29381716335988 80.4955227304196 68.45164260154485 H 0.0 **** 0.06
22115 H 14.316140014082407 79.09667407359817 67.3518612906102 H 0.0 **** 0.06
22116 C 103.16972790400253 75.08899264946677 97.73608110683304 C 0.0 **** -0.24
22117 H 103.65305465469041 75.3531324994612 96.79585822858803 H 0.0 **** 0.06
22118 H 103.35559235672564 75.87235743422778 98.47208778023732 H 0.0 **** 0.06
22119 H 103.57329802930927 74.14424001273701 98.09913932537036 H 0.0 **** 0.06
22120 H 102.09567147540459 74.98762564917203 97.5766029232849 H 0.0 **** 0.06
22121 C 91.69458429417594 119.2909240697926 93.25029715587957 C 0.0 **** -0.24
22122 H 91.11553354841206 119.41638356175237 94.16581554256693 H 0.0 **** 0.06
22123 H 92.0225225526518 118.25467631172538 93.1681948469889 H 0.0 **** 0.06
22124 H 92.56490724981168 119.94597957213146 93.27887879154935 H 0.0 **** 0.06
22125 H 91.07497702865683 119.54553642360901 92.39044130031839 H 0.0 **** 0.06
22126 C 72.64349358923732 49.55888721889505 17.847441561634582 C 0.0 **** -0.24
22127 H 73.10367953342084 50.50359087310096 17.558198413759783 H 0.0 **** 0.06
22128 H 71.59324379871927 49.72636182639201 18.089279148585433 H 0.0 **** 0.06
22129 H 73.1575428620407 49.15656128795024 18.71964786216472 H 0.0 **** 0.06
22130 H 72.7179147814814 48.8508866575782 17.022820843553518 H 0.0 **** 0.06
22131 C 105.29565330742969 23.97566075888639 47.58055225034468 C 0.0 **** -0.24
22132 H 104.33900260187659 23.46053015544384 47.66470431656461 H 0.0 **** 0.06
22133 H 105.48067957164119 24.54832287136177 48.48981191507991 H 0.0 **** 0.06
22134 H 105.26911988329505 24.651600176590165 46.72515663879055 H 0.0 **** 0.06
22135 H 106.09120418789814 23.244772488192382 47.44180519478638 H 0.0 **** 0.06
22136 C 22.835297611515443 88.29458221734305 119.33554310605544 C 0.0 **** -0.24
22137 H 23.801516195207086 88.12373746974222 119.81068145469564 H 0.0 **** 0.06
22138 H 22.959220480005882 88.29489482457288 118.25210423344359 H 0.0 **** 0.06
22139 H 22.4370408792972 89.25638530766213 119.65679228025809 H 0.0 **** 0.06
22140 H 22.145273344422236 87.50106647942161 119.62188726088328 H 0.0 **** 0.06
22141 C 43.80039797402915 32.93898934988848 121.94490444507437 C 0.0 **** -0.24
22142 H 43.35212740304624 33.669421650172445 122.61859270336572 H 0.0 **** 0.06
22143 H 44.584504587762225 33.4186734823526 121.35918979445199 H 0.0 **** 0.06
22144 H 43.03579295170931 32.5439231121967 121.27525484283652 H 0.0 **** 0.06
22145 H 44.22910450181591 32.12302848408618 122.52698889060865 H 0.0 **** 0.06
22146 C 80.12515346339374 45.92123623804769 7.432325466935872 C 0.0 **** -0.24
22147 H 79.60490734516144 45.7213510383517 8.36945066060747 H 0.0 **** 0.06
22148 H 79.99376219509271 45.07592471041733 6.756914882803208 H 0.0 **** 0.06
22149 H 81.18632235000595 46.06821872839382 7.6301799094821625 H 0.0 **** 0.06
22150 H 79.71387276919776 46.82133185467504 6.974305999691353 H 0.0 **** 0.06
22151 C 4.182875631521 102.595292646774 56.84623287299732 C 0.0 **** -0.24
22152 H 3.2411943886674663 102.15622864886546 57.17510355868805 H 0.0 **** 0.06
22153 H 4.043978728815432 103.66267579477909 56.67283563240919 H 0.0 **** 0.06
22154 H 4.502796463899017 102.11525498650263 55.92105167599246 H 0.0 **** 0.06
22155 H 4.9412428549902785 102.44707389065275 57.61376069604054 H 0.0 **** 0.06
22156 C 39.465920117337824 101.89057172728008 74.13756806640947 C 0.0 **** -0.24
22157 H 38.58721186992298 101.50735128405034 74.6583527892131 H 0.0 **** 0.06
22158 H 40.05018609034553 101.05582732610799 73.74975523874957 H 0.0 **** 0.06
22159 H 40.07511997388744 102.46871071731118 74.83229934227688 H 0.0 **** 0.06
22160 H 39.14934277520962 102.52840852754088 73.31357073719755 H 0.0 **** 0.06
22161 C 18.800818396345004 44.67300484973657 27.253229234603793 C 0.0 **** -0.24
22162 H 19.1717727272378 43.94332581213871 27.97370556895936 H 0.0 **** 0.06
22163 H 19.490629543921344 44.73536771691465 26.411915303743285 H 0.0 **** 0.06
22164 H 18.72288151058137 45.64887054902033 27.733061198918563 H 0.0 **** 0.06
22165 H 17.818350985178952 44.36401942903365 26.896618114146463 H 0.0 **** 0.06
22166 C 30.46566498453106 18.089880800072407 90.63502861522517 C 0.0 **** -0.24
22167 H 29.900628489827078 18.75791007020957 91.28499196379477 H 0.0 **** 0.06
22168 H 30.793368815518697 18.635759555965695 89.75066711894499 H 0.0 **** 0.06
22169 H 29.83195377766757 17.25505412014533 90.33375085015933 H 0.0 **** 0.06
22170 H 31.335343852871574 17.71090527690191 91.17247253210519 H 0.0 **** 0.06
22171 C 22.624285155779404 121.72794815310336 6.1434250070050105 C 0.0 **** -0.24
22172 H 23.026795115612003 122.73911246016593 6.086274646980954 H 0.0 **** 0.06
22173 H 23.057253859653812 121.2129811672195 7.001725582533066 H 0.0 **** 0.06
22174 H 22.87198480010808 121.18663674275051 5.230604912967447 H 0.0 **** 0.06
22175 H 21.540727161335454 121.77428904504985 6.256925475964827 H 0.0 **** 0.06
22176 C 120.36319327522386 67.6569501673462 6.647770718987481 C 0.0 **** -0.24
22177 H 121.26905767212314 67.06167780138503 6.535997842559414 H 0.0 **** 0.06
22178 H 119.7933649513763 67.29256029265767 7.502845824655942 H 0.0 **** 0.06
22179 H 119.75971326701676 67.57293746706817 5.745025821105525 H 0.0 **** 0.06
22180 H 120.63305938465481 68.70083767684476 6.808658488099965 H 0.0 **** 0.06
22181 C 107.94548242688563 2.5142852346330073 107.83574268058459 C 0.0 **** -0.24
22182 H 107.56976773155662 3.221156779338429 107.0952591561522 H 0.0 **** 0.06
22183 H 107.6640475103498 2.85099538541229 108.83415013177174 H 0.0 **** 0.06
22184 H 109.03134870159852 2.456741679501448 107.7641616101279 H 0.0 **** 0.06
22185 H 107.51597368404646 1.5303266900004928 107.6491803725952 H 0.0 **** 0.06
22186 C 97.38745685504227 97.94641253791347 50.829951662022204 C 0.0 **** -0.24
22187 H 96.6093517848285 98.6698432740493 50.5853863249517 H 0.0 **** 0.06
22188 H 97.85563119404657 98.22187906311748 51.775046206491936 H 0.0 **** 0.06
22189 H 98.13877843031139 97.94011051296685 50.040211902357115 H 0.0 **** 0.06
22190 H 96.94501036865313 96.95358710640448 50.918249670191685 H 0.0 **** 0.06
22191 C 54.070069804210476 10.51175552002465 121.48972504010783 C 0.0 **** -0.24
22192 H 54.17180941359527 9.557488294574767 122.0070893704891 H 0.0 **** 0.06
22193 H 54.04445605604643 10.339012894043634 120.41292899204328 H 0.0 **** 0.06
22194 H 54.91659633753456 11.151350604832402 121.7362845176587 H 0.0 **** 0.06
22195 H 53.14491759187031 10.99732268827907 121.80201605094427 H 0.0 **** 0.06
22196 C 20.316636062448822 55.95930546075138 19.924801609322515 C 0.0 **** -0.24
22197 H 21.240617141964208 56.32445379833874 19.47672868060789 H 0.0 **** 0.06
22198 H 19.553572204877355 55.86097309757807 19.152906548967167 H 0.0 **** 0.06
22199 H 19.97852966843925 56.66421471600981 20.683418535527267 H 0.0 **** 0.06
22200 H 20.49598408488815 54.98740208997012 20.385009014654656 H 0.0 **** 0.06
22201 C 35.637651518949006 12.888950970270255 84.29484352570006 C 0.0 **** -0.24
22202 H 36.05812896774184 11.924442219440078 84.57785278674635 H 0.0 **** 0.06
22203 H 34.66634749500682 12.737563091649601 83.82464795523452 H 0.0 **** 0.06
22204 H 36.3084213278156 13.384722450929374 83.59181058902612 H 0.0 **** 0.06
22205 H 35.52013280306884 13.508752076828642 85.18364251164792 H 0.0 **** 0.06
22206 C 101.82863182371352 112.10366577555092 8.791078025957837 C 0.0 **** -0.24
22207 H 101.67877273712713 111.15903732745039 8.266665834360786 H 0.0 **** 0.06
22208 H 100.87396634038345 112.45674136936663 9.182686525534752 H 0.0 **** 0.06
22209 H 102.23329260892802 112.84206052776287 8.099607496873126 H 0.0 **** 0.06
22210 H 102.52681969557739 111.95458981656282 9.61425645057217 H 0.0 **** 0.06
22211 C 63.24122922526061 22.614619896177295 56.07084332004598 C 0.0 **** -0.24
22212 H 63.58433816888355 22.828074637400924 55.05835576445526 H 0.0 **** 0.06
22213 H 63.42563296522893 23.481058157393967 56.70687301195156 H 0.0 **** 0.06
22214 H 63.781115331737624 21.75285924109373 56.46329366556222 H 0.0 **** 0.06
22215 H 62.17302453428992 22.39707531687202 56.05384826168398 H 0.0 **** 0.06
22216 C 41.2301057694178 43.275019959281565 68.5566168079385 C 0.0 **** -0.24
22217 H 40.48550785777417 43.50152959735573 67.79456828433354 H 0.0 **** 0.06
22218 H 41.40914320568512 42.19994623951868 68.58104667435015 H 0.0 **** 0.06
22219 H 40.86699356634225 43.604842566137904 69.52993652762794 H 0.0 **** 0.06
22220 H 42.16028147836293 43.79291904259742 68.32109304953627 H 0.0 **** 0.06
22221 C 72.91784351542188 15.218015997212404 45.51468737119018 C 0.0 **** -0.24
22222 H 73.2754721777504 15.188026019700686 44.48598382272871 H 0.0 **** 0.06
22223 H 73.62266976249067 15.780259188405324 46.12863554089785 H 0.0 **** 0.06
22224 H 72.83027296565582 14.202095988659991 45.89982064866541 H 0.0 **** 0.06
22225 H 71.94162690634683 15.703349923862334 45.54616587006706 H 0.0 **** 0.06
22226 C 36.271354995698225 55.666769468845956 25.944619872173405 C 0.0 **** -0.24
22227 H 36.08271434305287 55.362310597646584 26.973711298856976 H 0.0 **** 0.06
22228 H 36.29591603574473 56.75568245928477 25.887339484799206 H 0.0 **** 0.06
22229 H 35.47777619055789 55.28721001157257 25.301169025112998 H 0.0 **** 0.06
22230 H 37.22953289509564 55.264023955126476 25.615925660852348 H 0.0 **** 0.06
22231 C 87.5714263747693 119.3814876221587 82.58615752712096 C 0.0 **** -0.24
22232 H 88.1570030708488 119.99947748859525 83.26748433133167 H 0.0 **** 0.06
22233 H 87.95692471675052 119.49271101900254 81.57235472208798 H 0.0 **** 0.06
22234 H 86.52850417667119 119.697339952668 82.61560769828228 H 0.0 **** 0.06
22235 H 87.64295973978695 118.33711308593534 82.89103381256918 H 0.0 **** 0.06
22236 C 74.12621686024352 108.97862467415789 56.77859796433822 C 0.0 **** -0.24
22237 H 73.53595736569417 108.54433802898524 57.58555431425104 H 0.0 **** 0.06
22238 H 73.64613867709937 109.89461284834934 56.43087474942378 H 0.0 **** 0.06
22239 H 74.1943476110161 108.2684798507068 55.95523888630508 H 0.0 **** 0.06
22240 H 75.1262648030484 109.20919686473985 57.14491647196809 H 0.0 **** 0.06
22241 C 87.94838489347839 12.988633348908564 85.28177196393699 C 0.0 **** -0.24
22242 H 88.49157890678399 13.02807344041588 86.2264250735318 H 0.0 **** 0.06
22243 H 87.67466820551951 13.99969009915418 84.97899619116095 H 0.0 **** 0.06
22244 H 87.046514327496 12.388985450722942 85.4063898101931 H 0.0 **** 0.06
22245 H 88.58187765408638 12.538407285875905 84.51799772891059 H 0.0 **** 0.06
22246 C 99.50211462565824 30.004083204626873 31.9462297989907 C 0.0 **** -0.24
22247 H 98.68483108786302 29.84572012716972 32.65041266205509 H 0.0 **** 0.06
22248 H 99.15238476194031 29.797109905502964 30.93337988955085 H 0.0 **** 0.06
22249 H 100.32585076725371 29.334186131199303 32.19003979552217 H 0.0 **** 0.06
22250 H 99.84123189087 31.03751187922321 32.00988751173375 H 0.0 **** 0.06
22251 C 87.48466084382837 58.286624497481114 51.036998467600284 C 0.0 **** -0.24
22252 H 86.71444243570103 58.83895973353373 51.57537761011372 H 0.0 **** 0.06
22253 H 88.42720862630645 58.35274610405759 51.58059880509481 H 0.0 **** 0.06
22254 H 87.60787589294658 58.71249319173734 50.041541999142126 H 0.0 **** 0.06
22255 H 87.1872321930173 57.24110996718008 50.950665850639254 H 0.0 **** 0.06
22256 C 116.75347707722646 26.5459066609529 21.227762300890923 C 0.0 **** -0.24
22257 H 117.46100529625821 26.295922816561003 20.43727726247434 H 0.0 **** 0.06
22258 H 117.07418053091374 27.461534048223555 21.726418078907628 H 0.0 **** 0.06
22259 H 116.71500466139476 25.731543618114934 21.951937326738665 H 0.0 **** 0.06
22260 H 115.76371782033921 26.694626160912364 20.795416535443053 H 0.0 **** 0.06
22261 C 53.96414051839447 5.223183980846272 58.091938924565085 C 0.0 **** -0.24
22262 H 53.24049515266411 5.897976900435708 58.55052116573597 H 0.0 **** 0.06
22263 H 53.43478951231104 4.434907948300975 57.554572907162424 H 0.0 **** 0.06
22264 H 54.5886524168653 4.7793392258177505 58.866238831654016 H 0.0 **** 0.06
22265 H 54.58944672805869 5.781508635819762 57.39547111142329 H 0.0 **** 0.06
22266 C 92.51178267701064 49.76832560690616 88.29480538169632 C 0.0 **** -0.24
22267 H 93.3239343304842 49.76835433192758 89.02128962702298 H 0.0 **** 0.06
22268 H 91.88343997745682 48.890889091259226 88.45253426185776 H 0.0 **** 0.06
22269 H 92.9266995242152 49.741186490734435 87.28672044463865 H 0.0 **** 0.06
22270 H 91.9136026091023 50.67080905409841 88.41747526504149 H 0.0 **** 0.06
22271 C 16.764134623491373 5.625330746231754 39.9605776613256 C 0.0 **** -0.24
22272 H 16.106290699907277 5.007714843811385 39.34924250973759 H 0.0 **** 0.06
22273 H 17.485251914141372 4.989027536547127 40.47439166281666 H 0.0 **** 0.06
22274 H 16.172453877372675 6.170336420788487 40.69472431456006 H 0.0 **** 0.06
22275 H 17.293911186930018 6.333087774816093 39.32261487716087 H 0.0 **** 0.06
22276 C 115.19536305016358 6.570258301994883 95.02063960087825 C 0.0 **** -0.24
22277 H 114.5670031384249 6.042389659003163 95.73680308174166 H 0.0 **** 0.06
22278 H 114.64581928995322 7.41979811967688 94.61286814249962 H 0.0 **** 0.06
22279 H 115.4709556890289 5.894372753261919 94.21139050104549 H 0.0 **** 0.06
22280 H 116.09613615338779 6.925704673481224 95.52004159204749 H 0.0 **** 0.06
22281 C 11.54617967444372 97.65815593889678 119.11104537748466 C 0.0 **** -0.24
22282 H 11.516001118582636 96.56844898514493 119.1217101479364 H 0.0 **** 0.06
22283 H 10.619712958009444 98.05060036144593 119.53278892421014 H 0.0 **** 0.06
22284 H 11.654499224054405 98.00779123679146 118.08474586175052 H 0.0 **** 0.06
22285 H 12.391677865905507 98.00437511259656 119.70478501232452 H 0.0 **** 0.06
22286 C 14.570120420951735 91.52728475916446 28.001522970820275 C 0.0 **** -0.24
22287 H 15.226814607959248 90.66485135338043 28.10980963052046 H 0.0 **** 0.06
22288 H 15.163559722353192 92.40648061213554 27.7485047655843 H 0.0 **** 0.06
22289 H 14.043384980453094 91.7025230172956 28.940283380535078 H 0.0 **** 0.06
22290 H 13.846796777539684 91.33648612603028 27.208738954948018 H 0.0 **** 0.06
22291 C 40.06949186000372 30.26594423793729 64.54839457729179 C 0.0 **** -0.24
22292 H 40.26728700411735 30.350309341336143 65.61673782283263 H 0.0 **** 0.06
22293 H 40.488160169243145 31.129520990921193 64.03232025424585 H 0.0 **** 0.06
22294 H 38.99270968576269 30.2292243191414 64.3810101615008 H 0.0 **** 0.06
22295 H 40.52846700295936 29.354866655706992 64.16459363911031 H 0.0 **** 0.06
22296 C 26.136901256611537 121.01053522625547 68.3874164436784 C 0.0 **** -0.24
22297 H 27.08771883781418 121.33135886635822 67.96262144561595 H 0.0 **** 0.06
22298 H 25.804685180612324 121.74111451770452 69.12563466156749 H 0.0 **** 0.06
22299 H 26.261215759252877 120.0395210336751 68.86640603709944 H 0.0 **** 0.06
22300 H 25.39280937537501 120.93174095909426 67.59396668803592 H 0.0 **** 0.06
22301 C 82.45339365154163 21.190570264806794 0.4237273760535487 C 0.0 **** -0.24
22302 H 81.41339315948835 21.02635442774337 0.14088489798258763 H 0.0 **** 0.06
22303 H 82.89900976089743 21.92822544974227 -0.24476637724522732 H 0.0 **** 0.06
22304 H 83.00291976888263 20.25219411682655 0.3485478407795597 H 0.0 **** 0.06
22305 H 82.49757779154672 21.556692852610254 1.4498695522791536 H 0.0 **** 0.06
22306 C 30.199040130536048 2.1242362386465174 16.49049573286061 C 0.0 **** -0.24
22307 H 29.942845583530982 3.133926535084697 16.810749606195515 H 0.0 **** 0.06
22308 H 29.378072217551363 1.7101165207604367 15.904469884059637 H 0.0 **** 0.06
22309 H 30.37436008708474 1.4979212674426776 17.364898471389267 H 0.0 **** 0.06
22310 H 31.102093443454777 2.1553616779905838 15.88002404287235 H 0.0 **** 0.06
22311 C 13.39084803202769 67.17562862445448 119.69736736775961 C 0.0 **** -0.24
22312 H 12.996053069727026 67.1491297688761 118.68148967793796 H 0.0 **** 0.06
22313 H 12.576245672574004 67.0292234574826 120.4068786411211 H 0.0 **** 0.06
22314 H 13.86245240647375 68.14157807632301 119.87870873363337 H 0.0 **** 0.06
22315 H 14.128009249282684 66.38220847670118 119.82118386115597 H 0.0 **** 0.06
22316 C 24.906589904831833 114.28469165343836 31.920782821038046 C 0.0 **** -0.24
22317 H 24.303320130728025 115.17863832362949 31.760952706966663 H 0.0 **** 0.06
22318 H 25.674158011474617 114.49315510513927 32.667211643937236 H 0.0 **** 0.06
22319 H 25.38124837788095 113.99396202145712 30.98356495552372 H 0.0 **** 0.06
22320 H 24.268829125287084 113.47418134669469 32.27184958685061 H 0.0 **** 0.06
22321 C 37.797640271982075 102.28946318355668 25.199239767166915 C 0.0 **** -0.24
22322 H 38.393589703604896 102.04225272040922 24.32087085108239 H 0.0 **** 0.06
22323 H 36.89485341789952 101.67782631606708 25.208014981189905 H 0.0 **** 0.06
22324 H 37.52322915360204 103.34335564157045 25.166469712716747 H 0.0 **** 0.06
22325 H 38.37891282236832 102.0927974129069 26.100063002000212 H 0.0 **** 0.06
22326 C 9.544128505820652 97.1746802014004 65.59066776708414 C 0.0 **** -0.24
22327 H 9.200156657070579 96.14036903004899 65.5830862783244 H 0.0 **** 0.06
22328 H 10.021975420750096 97.39098932589556 66.54686098341199 H 0.0 **** 0.06
22329 H 8.693513023887533 97.84118816089338 65.4505067434336 H 0.0 **** 0.06
22330 H 10.261429145171064 97.3247621115012 64.78351787806326 H 0.0 **** 0.06
22331 C 92.85187134439363 76.77617917027564 72.67371093522422 C 0.0 **** -0.24
22332 H 93.56046996310229 76.24436465574817 72.0379821568059 H 0.0 **** 0.06
22333 H 91.91627775441415 76.21906943094419 72.72000419872009 H 0.0 **** 0.06
22334 H 92.6655373896418 77.76715945267122 72.2588477220635 H 0.0 **** 0.06
22335 H 93.26719583278057 76.87422654733544 73.67700601682984 H 0.0 **** 0.06
22336 C 0.9001455513991985 63.535318657701694 90.04904972492378 C 0.0 **** -0.24
22337 H 0.3444095378820826 64.47182610695991 90.08974318780682 H 0.0 **** 0.06
22338 H 0.2054594660706357 62.6974961956343 90.11426098712778 H 0.0 **** 0.06
22339 H 1.600198951242275 63.49248044813565 90.88380290131533 H 0.0 **** 0.06
22340 H 1.4506609290788504 63.47931890162262 89.10936913433815 H 0.0 **** 0.06
22341 C 31.88807159044603 56.39817944307342 96.05262041154342 C 0.0 **** -0.24
22342 H 32.44654423324002 56.71129464710722 95.16996196545426 H 0.0 **** 0.06
22343 H 30.84616164495793 56.22906606473941 95.78005288327256 H 0.0 **** 0.06
22344 H 31.943332134490817 57.17733732963242 96.81248614758726 H 0.0 **** 0.06
22345 H 32.31632255788824 55.47656824664088 96.44457516273997 H 0.0 **** 0.06
22346 C 1.8262024365730127 27.4743336367049 97.3946822079534 C 0.0 **** -0.24
22347 H 2.0725246405802977 26.886359180716795 96.51004659684727 H 0.0 **** 0.06
22348 H 0.7479400987587752 27.460661318218456 97.55119439389674 H 0.0 **** 0.06
22349 H 2.1612282414718607 28.501251538503865 97.25080028403625 H 0.0 **** 0.06
22350 H 2.3260448333024613 27.047604576066036 98.26417722620104 H 0.0 **** 0.06
22351 C 32.37805294620796 54.386508814645 44.47293025095607 C 0.0 **** -0.24
22352 H 31.57814042200235 54.7169810000465 43.81143065331824 H 0.0 **** 0.06
22353 H 32.85649610481187 55.255839858173545 44.92587117295659 H 0.0 **** 0.06
22354 H 33.11434287978861 53.82393136932717 43.89964113147542 H 0.0 **** 0.06
22355 H 31.963791113525872 53.75077583525416 45.255455918698445 H 0.0 **** 0.06
22356 C 102.0636239531392 95.50202283394034 6.591926657475398 C 0.0 **** -0.24
22357 H 102.34288397268271 94.55289948085708 6.133612954335291 H 0.0 **** 0.06
22358 H 101.14110361653033 95.86646966134582 6.13929824512411 H 0.0 **** 0.06
22359 H 102.8595308147777 96.2288695495918 6.43448859366913 H 0.0 **** 0.06
22360 H 101.9107719821752 95.3565017927446 7.66162224286748 H 0.0 **** 0.06
22361 C 43.12216458517412 28.964889614776567 55.75430518518168 C 0.0 **** -0.24
22362 H 42.24733636922736 28.45599139070447 56.15792858580123 H 0.0 **** 0.06
22363 H 43.84140312793699 28.225614810638433 55.398419645385914 H 0.0 **** 0.06
22364 H 43.5813156216623 29.5716403925654 56.53499945634769 H 0.0 **** 0.06
22365 H 42.819874625827104 29.605782711856932 54.92619497859647 H 0.0 **** 0.06
22366 C 113.63539038856256 33.791344351688565 64.55583415957517 C 0.0 **** -0.24
22367 H 114.47254649538745 33.39380635681519 65.12956135834071 H 0.0 **** 0.06
22368 H 113.16832376713049 34.60514145104801 65.11068618370612 H 0.0 **** 0.06
22369 H 112.90492761848947 33.001787269659246 64.38333085692949 H 0.0 **** 0.06
22370 H 113.99817208181979 34.16566996598573 63.598688678751756 H 0.0 **** 0.06
22371 C 96.34942276101728 22.0941173991975 59.56092250568213 C 0.0 **** -0.24
22372 H 95.63324952617606 22.488494463053485 58.84033155786172 H 0.0 **** 0.06
22373 H 96.10059822809413 22.46060827278893 60.55761733377773 H 0.0 **** 0.06
22374 H 97.3533407099424 22.422608357224675 59.293370438614616 H 0.0 **** 0.06
22375 H 96.30964189867726 21.005087449929988 59.55344359952886 H 0.0 **** 0.06
22376 C 57.90266953792951 106.62983415966222 8.027368414538671 C 0.0 **** -0.24
22377 H 57.76010297068865 107.11106069720638 8.994592516957184 H 0.0 **** 0.06
22378 H 57.93839743508266 107.3884206404095 7.245282235777353 H 0.0 **** 0.06
22379 H 57.073034198191735 105.94845578958312 7.835912186642531 H 0.0 **** 0.06
22380 H 58.83827908938957 106.06956473004807 8.034628290368403 H 0.0 **** 0.06
22381 C 51.99071599984477 81.46712077569912 122.16431319399504 C 0.0 **** -0.24
22382 H 51.45847277457463 80.57533771676809 122.496225630407 H 0.0 **** 0.06
22383 H 51.37578274252536 82.00934138762415 121.44559931773784 H 0.0 **** 0.06
22384 H 52.928365031637696 81.17387375508008 121.69179842833896 H 0.0 **** 0.06
22385 H 52.199732601347364 82.10674039873963 123.02106720587997 H 0.0 **** 0.06
22386 C 58.40625552641916 107.23067676071219 40.128576886223016 C 0.0 **** -0.24
22387 H 58.1723718639839 107.37533270336799 39.07310216793212 H 0.0 **** 0.06
22388 H 57.520170016357014 106.86955753144744 40.65086616522052 H 0.0 **** 0.06
22389 H 58.723105448083146 108.17876297116764 40.563171379318106 H 0.0 **** 0.06
22390 H 59.209052285126944 106.49974790476858 40.22597855708604 H 0.0 **** 0.06
22391 C 88.08653228880583 120.24414998533918 31.51593731783204 C 0.0 **** -0.24
22392 H 87.3424678450999 120.92907554637709 31.920657842968353 H 0.0 **** 0.06
22393 H 87.85230579729213 119.22706006832698 31.82993691845077 H 0.0 **** 0.06
22394 H 89.07398167063634 120.51994191161913 31.88680018805377 H 0.0 **** 0.06
22395 H 88.07857468958639 120.29974765662979 30.42733303316558 H 0.0 **** 0.06
22396 C 25.944986463455926 22.29015413283537 1.405253481108332 C 0.0 **** -0.24
22397 H 25.26409643111031 21.522306365014032 1.038587077032048 H 0.0 **** 0.06
22398 H 26.97164024882983 21.934499819841932 1.3225632089253452 H 0.0 **** 0.06
22399 H 25.718034916504998 22.508656843410506 2.448377264720989 H 0.0 **** 0.06
22400 H 25.824328296179004 23.195710406813816 0.8094169017292216 H 0.0 **** 0.06
22401 C 60.544539976049435 121.32800212323765 110.89701191157968 C 0.0 **** -0.24
22402 H 60.692282190973756 120.39814891517088 111.4448311096454 H 0.0 **** 0.06
22403 H 60.24875694755478 122.115752222568 111.59024124957585 H 0.0 **** 0.06
22404 H 59.762658760530215 121.18905109792365 110.15017719036132 H 0.0 **** 0.06
22405 H 61.47357438109209 121.60927302102698 110.40171863192444 H 0.0 **** 0.06
22406 C 112.02295384207335 79.39714875119533 111.5816426992054 C 0.0 **** -0.24
22407 H 112.77250787003462 80.0496689519229 111.13297924256476 H 0.0 **** 0.06
22408 H 111.15546290055305 79.9886102969624 111.87394972560264 H 0.0 **** 0.06
22409 H 112.44436300367778 78.9106100378542 112.46073999370527 H 0.0 **** 0.06
22410 H 111.72049063092865 78.63997333861944 110.85751966830544 H 0.0 **** 0.06
22411 C 89.74839097769188 9.160762379461183 84.83098122335076 C 0.0 **** -0.24
22412 H 89.4197796114234 10.168813044366914 85.08273726291506 H 0.0 **** 0.06
22413 H 89.69424894571372 9.019789349528786 83.75230617588991 H 0.0 **** 0.06
22414 H 89.10344945068158 8.434418940522818 85.32582398437063 H 0.0 **** 0.06
22415 H 90.77614184270735 9.019616718063531 85.16525470374211 H 0.0 **** 0.06
22416 C 33.80903328444455 93.77489519622564 112.50073775678406 C 0.0 **** -0.24
22417 H 34.16622166111537 92.8321536694383 112.91368390121961 H 0.0 **** 0.06
22418 H 34.14504349835289 93.87110822866805 111.46865595023951 H 0.0 **** 0.06
22419 H 34.20338508426735 94.60256874828603 113.0908368097049 H 0.0 **** 0.06
22420 H 32.71921540704 93.79440550806864 112.53162625043092 H 0.0 **** 0.06
22421 C 83.13237401559036 9.770794504963465 1.0527964068697884 C 0.0 **** -0.24
22422 H 83.89396716554683 10.244540022281711 0.4323450901586625 H 0.0 **** 0.06
22423 H 83.53958901218743 8.863150530467927 1.4989444772061802 H 0.0 **** 0.06
22424 H 82.26961243513256 9.516980618892124 0.43593520884417103 H 0.0 **** 0.06
22425 H 82.8265477305169 10.458874332571359 1.8403807495080855 H 0.0 **** 0.06
22426 C 85.4726813757041 75.22159570614406 31.712021448172578 C 0.0 **** -0.24
22427 H 85.267912692516 76.29012483304979 31.63931625603138 H 0.0 **** 0.06
22428 H 84.72269534117862 74.75038554119311 32.347149486428776 H 0.0 **** 0.06
22429 H 86.46210191140182 75.06962704217608 32.14475496929197 H 0.0 **** 0.06
22430 H 85.4388030220963 74.7767257015646 30.717937146862738 H 0.0 **** 0.06
22431 C 104.73756647651483 14.878782785487942 12.161956252626652 C 0.0 **** -0.24
22432 H 104.4876880593489 15.11821199032832 11.128249741593663 H 0.0 **** 0.06
22433 H 105.57396449620829 15.499138164742618 12.486393221484576 H 0.0 **** 0.06
22434 H 105.0159644599931 13.827030213734744 12.234536163621527 H 0.0 **** 0.06
22435 H 103.87403793200882 15.071785504842353 12.79865329329266 H 0.0 **** 0.06
22436 C 26.11761798310289 103.2245270824917 94.45556637246875 C 0.0 **** -0.24
22437 H 26.486191242558107 102.74612151203803 93.54892670028926 H 0.0 **** 0.06
22438 H 25.982579692263982 104.29090047628785 94.27476219455787 H 0.0 **** 0.06
22439 H 26.838454742235 103.08063363916034 95.26091585773213 H 0.0 **** 0.06
22440 H 25.163434951137617 102.78007103844806 94.73933969153506 H 0.0 **** 0.06
22441 C 49.678886554032964 116.18553201158979 69.21074284261323 C 0.0 **** -0.24
22442 H 49.454339126350376 115.13285999238106 69.03931422659153 H 0.0 **** 0.06
22443 H 50.584712404522115 116.26952921336711 69.8125607508432 H 0.0 **** 0.06
22444 H 48.847110096697605 116.65372205200097 69.73710746789808 H 0.0 **** 0.06
22445 H 49.830838662361685 116.68510819115863 68.25374340337598 H 0.0 **** 0.06
22446 C 43.53430075864774 1.4477530035416635 14.951319719627236 C 0.0 **** -0.24
22447 H 42.46112306321801 1.5257542089620983 15.128063044635326 H 0.0 **** 0.06
22448 H 43.75040211486621 1.7059195741603617 13.914424375761257 H 0.0 **** 0.06
22449 H 43.86059119429204 0.4266318835922789 15.147033496589472 H 0.0 **** 0.06
22450 H 44.06162871693368 2.1322267284139116 15.61485614273829 H 0.0 **** 0.06
22451 C 41.443491392404326 108.05150616223898 58.817193010753044 C 0.0 **** -0.24
22452 H 40.61325085414984 108.29554512091721 58.15307446775188 H 0.0 **** 0.06
22453 H 41.445426300324684 106.98085714935456 59.01716440063967 H 0.0 **** 0.06
22454 H 41.33040975074176 108.59630601566971 59.75439702305923 H 0.0 **** 0.06
22455 H 42.38217340430484 108.33556002283257 58.342852286629665 H 0.0 **** 0.06
22456 C 66.7468316225866 71.69869073965947 100.78575019477228 C 0.0 **** -0.24
22457 H 66.53450697791381 72.30936888600252 99.90814370021647 H 0.0 **** 0.06
22458 H 66.71765234398873 70.64451962546389 100.51018071742378 H 0.0 **** 0.06
22459 H 66.00001791278751 71.89539187146033 101.55499050661645 H 0.0 **** 0.06
22460 H 67.73720335965292 71.94742512622202 101.16868204364599 H 0.0 **** 0.06
22461 C 82.04799487562912 53.56188286303009 96.69415982522355 C 0.0 **** -0.24
22462 H 81.54846186280923 53.53622510322069 97.66360206579549 H 0.0 **** 0.06
22463 H 81.54354582196547 54.277277682144074 96.04496101786333 H 0.0 **** 0.06
22464 H 82.01174077151771 52.57099024150372 96.24125567371681 H 0.0 **** 0.06
22465 H 83.08720794278415 53.86187466541031 96.82871771091334 H 0.0 **** 0.06
22466 C 48.28455838394083 102.69602346134897 97.24940378437952 C 0.0 **** -0.24
22467 H 47.42364504329089 102.1152691422196 96.91826280574645 H 0.0 **** 0.06
22468 H 47.97267419342727 103.39594275920788 98.02548497091463 H 0.0 **** 0.06
22469 H 48.69661115404509 103.24882553805625 96.40601478185918 H 0.0 **** 0.06
22470 H 49.04425957892511 102.02375086130758 97.6500475582878 H 0.0 **** 0.06
22471 C 103.62726234405194 38.091890634199885 77.1098890393503 C 0.0 **** -0.24
22472 H 102.90061428703666 37.799256670664704 76.3521122518752 H 0.0 **** 0.06
22473 H 103.5036212294761 37.46448105896005 77.99308995277256 H 0.0 **** 0.06
22474 H 103.46887191549177 39.13588019704713 77.38017771738396 H 0.0 **** 0.06
22475 H 104.63492804198647 37.96844637221169 76.71332750434433 H 0.0 **** 0.06
22476 C 40.23690909044774 0.2242691764058975 59.530656665804344 C 0.0 **** -0.24
22477 H 39.31353763893776 0.7185904603509812 59.832703587838495 H 0.0 **** 0.06
22478 H 40.91810199359958 0.1756053858447757 60.38034707140312 H 0.0 **** 0.06
22479 H 40.70354189397705 0.7881461342245188 58.722781474766464 H 0.0 **** 0.06
22480 H 40.01207718706098 -0.7850572348878586 59.18589222391438 H 0.0 **** 0.06
22481 C 103.54343654998497 34.08040617967671 77.43084436542529 C 0.0 **** -0.24
22482 H 102.7344824853267 33.96072171828278 76.7093530479292 H 0.0 **** 0.06
22483 H 104.46277588199148 34.338655331882364 76.9054499753556 H 0.0 **** 0.06
22484 H 103.68489164519119 33.14647529828371 77.97473798501808 H 0.0 **** 0.06
22485 H 103.28916939750998 34.87480809543175 78.13235951489102 H 0.0 **** 0.06
22486 C 9.65054226208482 100.99814811144279 78.09485076338841 C 0.0 **** -0.24
22487 H 9.066059428655802 100.09773493524779 77.90409261416133 H 0.0 **** 0.06
22488 H 9.331776144187323 101.44535633084956 79.03690953552164 H 0.0 **** 0.06
22489 H 9.49781313108258 101.70910662400593 77.28335925366531 H 0.0 **** 0.06
22490 H 10.707914108720999 100.73778081467151 78.1555173199154 H 0.0 **** 0.06
22491 C 50.43973431814683 37.74916208031297 67.47090680286257 C 0.0 **** -0.24
22492 H 50.65778090783314 38.186868977085595 66.49728212707343 H 0.0 **** 0.06
22493 H 49.714629226313235 36.942950455756545 67.35286352963632 H 0.0 **** 0.06
22494 H 50.026903611786366 38.51478769917341 68.12872136078417 H 0.0 **** 0.06
22495 H 51.356778208371 37.35292315948021 67.90511624868077 H 0.0 **** 0.06
22496 C 93.23981230895393 46.5149016480876 56.171884593260415 C 0.0 **** -0.24
22497 H 92.66527920750487 45.94237217745484 56.900456799342265 H 0.0 **** 0.06
22498 H 92.85088754310908 47.53242074834404 56.12174310496769 H 0.0 **** 0.06
22499 H 93.1552565521282 46.04455382711805 55.19253995235701 H 0.0 **** 0.06
22500 H 94.2867241111826 46.54017542107516 56.474984650818016 H 0.0 **** 0.06
22501 C 46.29133177158015 62.65019910223634 78.79582702514242 C 0.0 **** -0.24
22502 H 45.24584321706945 62.34126455191816 78.79253244346882 H 0.0 **** 0.06
22503 H 46.50611614972331 63.1931640339462 79.71672143194667 H 0.0 **** 0.06
22504 H 46.48174755790515 63.29775648615694 77.93953501382573 H 0.0 **** 0.06
22505 H 46.93046729813068 61.76955112285742 78.73540683120163 H 0.0 **** 0.06
22506 C 9.24987281543389 32.33018029809986 77.23780525868962 C 0.0 **** -0.24
22507 H 8.17399764096281 32.50011229932065 77.2633468685652 H 0.0 **** 0.06
22508 H 9.709655876126703 33.01821156459363 76.5273340780806 H 0.0 **** 0.06
22509 H 9.448457357813936 31.303415944522158 76.92948743072297 H 0.0 **** 0.06
22510 H 9.668649588272785 32.498255403456 78.22936080984165 H 0.0 **** 0.06
22511 C 58.62164460917208 14.238428697080735 77.55390200380279 C 0.0 **** -0.24
22512 H 58.91192776000429 15.188763009996393 77.10421191661001 H 0.0 **** 0.06
22513 H 58.749114608824385 14.295650122455982 78.63564268420336 H 0.0 **** 0.06
22514 H 59.24746890697929 13.440744483118436 77.15439540668666 H 0.0 **** 0.06
22515 H 57.57718166173052 14.03218442083545 77.32160237082587 H 0.0 **** 0.06
22516 C 56.094287935530815 67.92857560107507 106.62140589433555 C 0.0 **** -0.24
22517 H 55.534911579352126 67.04056127286557 106.91740995689102 H 0.0 **** 0.06
22518 H 57.085045636902464 67.90153639534802 107.07496048029269 H 0.0 **** 0.06
22519 H 55.56466087159049 68.8198681785232 106.95616306132696 H 0.0 **** 0.06
22520 H 56.19208100026975 67.95029292882697 105.53630334250128 H 0.0 **** 0.06
22521 C 49.0018728069473 38.52915029712523 57.42201211079367 C 0.0 **** -0.24
22522 H 48.506918505307695 37.600280833608 57.138474688549394 H 0.0 **** 0.06
22523 H 48.59210693192608 38.88401111344359 58.36896013826848 H 0.0 **** 0.06
22524 H 48.834417684646674 39.28033342549281 56.649926354870274 H 0.0 **** 0.06
22525 H 50.07131918748368 38.352219178548495 57.531909661377 H 0.0 **** 0.06
22526 C 29.602646613355432 119.10066428556082 0.948852660010516 C 0.0 **** -0.24
22527 H 29.156097651629835 119.27017463595706 1.9284163131515584 H 0.0 **** 0.06
22528 H 29.91672296926987 118.06014575433174 0.8669384844968135 H 0.0 **** 0.06
22529 H 30.468112137091993 119.75235731590057 0.8270768281307141 H 0.0 **** 0.06
22530 H 28.869370405863833 119.32211736730055 0.17238802769412587 H 0.0 **** 0.06
22531 C 91.6018251080052 97.39088079986402 13.741140410784993 C 0.0 **** -0.24
22532 H 90.59622004587617 97.30797671182843 14.1539261905194 H 0.0 **** 0.06
22533 H 92.31252853053549 97.56860340497335 14.548771560194353 H 0.0 **** 0.06
22534 H 91.63763785018429 98.2204891996671 13.035360676242789 H 0.0 **** 0.06
22535 H 91.86013376212176 96.46586742422232 13.226720794053165 H 0.0 **** 0.06
22536 C 80.08339232923007 22.72407951740982 72.73561039090166 C 0.0 **** -0.24
22537 H 79.49885733668859 21.804322944290504 72.73500159807259 H 0.0 **** 0.06
22538 H 79.53444486741475 23.503078557932724 72.2062155436571 H 0.0 **** 0.06
22539 H 81.03594994315011 22.54815473732296 72.23606243706925 H 0.0 **** 0.06
22540 H 80.26413408252779 23.039317470447315 73.7625388593957 H 0.0 **** 0.06
22541 C 40.531216870258234 85.05297662809858 0.7756058942333173 C 0.0 **** -0.24
22542 H 39.72430709876785 85.52279016683647 0.21245616916183607 H 0.0 **** 0.06
22543 H 40.826798924392776 84.12760916134098 0.2820302016828453 H 0.0 **** 0.06
22544 H 40.18760174101251 84.8333970099483 1.7864491761924342 H 0.0 **** 0.06
22545 H 41.38454852208756 85.72965780140558 0.8213922709870687 H 0.0 **** 0.06
22546 C 77.58417853705458 60.104748517197194 8.621153880025275 C 0.0 **** -0.24
22547 H 77.18111544676142 61.07381533182709 8.915152782799169 H 0.0 **** 0.06
22548 H 77.00295372207924 59.70654162893368 7.789598299499545 H 0.0 **** 0.06
22549 H 77.52988367660748 59.4172754275873 9.465847065945297 H 0.0 **** 0.06
22550 H 78.62380183896289 60.22233183619315 8.315423180073907 H 0.0 **** 0.06
22551 C 9.992962979001042 113.4485795698808 51.53627793538166 C 0.0 **** -0.24
22552 H 10.211768954809788 114.16886688598447 52.32400046629411 H 0.0 **** 0.06
22553 H 9.75668200461691 113.98009110966306 50.61395503091725 H 0.0 **** 0.06
22554 H 9.142535046882305 112.8343307788628 51.83105314730966 H 0.0 **** 0.06
22555 H 10.862810843751031 112.81149976407431 51.37510492064237 H 0.0 **** 0.06
22556 C 109.58580363145953 19.921692152897236 13.941115401431059 C 0.0 **** -0.24
22557 H 109.76349539138229 19.21548047830521 13.130252650784719 H 0.0 **** 0.06
22558 H 110.54045764231202 20.243427442634612 14.358559871367653 H 0.0 **** 0.06
22559 H 108.99244644608135 19.439621694305686 14.71830524393507 H 0.0 **** 0.06
22560 H 109.04646951832748 20.787120809513766 13.556549877392236 H 0.0 **** 0.06
22561 C 114.85115500211657 119.37802340720643 109.91069829377051 C 0.0 **** -0.24
22562 H 114.66367662750235 120.17696875378218 109.19371721433481 H 0.0 **** 0.06
22563 H 115.92487544063312 119.28346685751694 110.07656646927506 H 0.0 **** 0.06
22564 H 114.45959709952356 118.43928533881694 109.51930088009215 H 0.0 **** 0.06
22565 H 114.3574749368658 119.61335954437999 110.85334275496376 H 0.0 **** 0.06
22566 C 75.67853592563226 62.93386506561201 49.796080704610496 C 0.0 **** -0.24
22567 H 75.50564006395922 63.47737183260375 48.866756128881946 H 0.0 **** 0.06
22568 H 74.82236155774525 62.2909111466718 50.00559570624675 H 0.0 **** 0.06
22569 H 75.80945653120136 63.64348586286276 50.61309161757972 H 0.0 **** 0.06
22570 H 76.57564676544219 62.3231542574006 49.6976016551612 H 0.0 **** 0.06
22571 C 48.17684541433056 122.91356433689793 95.85485148187632 C 0.0 **** -0.24
22572 H 48.019527964071244 122.28233708716436 94.98027839481227 H 0.0 **** 0.06
22573 H 47.397414543158675 122.71632688307949 96.59070649474432 H 0.0 **** 0.06
22574 H 48.14073712266213 123.9620761192457 95.5571536399516 H 0.0 **** 0.06
22575 H 49.15169234903607 122.69364985987562 96.29025680174061 H 0.0 **** 0.06
22576 C 96.8906867808902 45.16160930359291 85.41469374976138 C 0.0 **** -0.24
22577 H 96.23373950795578 44.38248352474574 85.80043196577327 H 0.0 **** 0.06
22578 H 97.89469903619518 44.757937506626945 85.27968175581448 H 0.0 **** 0.06
22579 H 96.92440666528594 45.99132220534659 86.12143643823198 H 0.0 **** 0.06
22580 H 96.51025058903761 45.516074431334516 84.45623846490213 H 0.0 **** 0.06
22581 C 82.02966047434808 90.88831127944633 34.511534628235026 C 0.0 **** -0.24
22582 H 81.49605709779382 89.93913309333993 34.464578238775516 H 0.0 **** 0.06
22583 H 81.31154732051209 91.70469112168811 34.591797854363314 H 0.0 **** 0.06
22584 H 82.62432206294682 91.01518715181805 33.605991198946484 H 0.0 **** 0.06
22585 H 82.68646341218692 90.89489912054535 35.38142727140184 H 0.0 **** 0.06
22586 C 89.6474816113519 8.299710303614887 80.44212565776652 C 0.0 **** -0.24
22587 H 90.23782629418332 9.21309486271312 80.51441330833238 H 0.0 **** 0.06
22588 H 89.1299135442917 8.276327486883673 79.48334245770477 H 0.0 **** 0.06
22589 H 88.91657626427673 8.275193120439866 81.25059705926013 H 0.0 **** 0.06
22590 H 90.30605198684742 7.43481708152828 80.52135619628723 H 0.0 **** 0.06
22591 C 117.92919022775597 72.20130323411988 63.38474317140242 C 0.0 **** -0.24
22592 H 117.07538883286124 71.54472673831634 63.54509299476902 H 0.0 **** 0.06
22593 H 117.73608581462476 73.16977775934966 63.84795864798282 H 0.0 **** 0.06
22594 H 118.08897231611047 72.33549453704173 62.31430720716334 H 0.0 **** 0.06
22595 H 118.81837521267707 71.75608053599287 63.831593865325715 H 0.0 **** 0.06
22596 C 35.47921285181304 75.60027484283867 114.38500154163441 C 0.0 **** -0.24
22597 H 34.46064349173441 75.9852782404071 114.33531699898384 H 0.0 **** 0.06
22598 H 35.855765898502284 75.43644148145964 113.37505888612156 H 0.0 **** 0.06
22599 H 35.485407593444705 74.65860493998824 114.93268397979679 H 0.0 **** 0.06
22600 H 36.11525472371987 76.32247504227036 114.89719226339025 H 0.0 **** 0.06
22601 C 23.970235186991374 96.48958549361257 42.5233692643463 C 0.0 **** -0.24
22602 H 23.037568959444343 96.9190107326684 42.15909832374726 H 0.0 **** 0.06
22603 H 24.738164234351814 96.58641715381259 41.7547123756205 H 0.0 **** 0.06
22604 H 23.81953273345846 95.43581641028314 42.75629019197112 H 0.0 **** 0.06
22605 H 24.28697602926502 97.0193378796231 43.421562636940564 H 0.0 **** 0.06
22606 C 68.51906424971035 88.28848851040198 55.5854365707911 C 0.0 **** -0.24
22607 H 68.34470293846448 89.32130430476889 55.28326047614118 H 0.0 **** 0.06
22608 H 68.82069698880146 87.7020155022849 54.71691836694089 H 0.0 **** 0.06
22609 H 67.60206994200152 87.87288722957481 56.00299101532127 H 0.0 **** 0.06
22610 H 69.30766793359508 88.25762135442062 56.33726045623206 H 0.0 **** 0.06
22611 C 100.53131721978838 68.76090406246098 96.6721204142129 C 0.0 **** -0.24
22612 H 101.13880080936175 68.10134007426925 96.0523755124898 H 0.0 **** 0.06
22613 H 101.18156790535997 69.4272114920496 97.23920610175507 H 0.0 **** 0.06
22614 H 99.93361547705538 68.16335315942271 97.36005225912375 H 0.0 **** 0.06
22615 H 99.87111076997476 69.35169415264953 96.03586314923923 H 0.0 **** 0.06
22616 C 58.81731406975487 104.55865786426577 20.73718087212319 C 0.0 **** -0.24
22617 H 59.64480887324743 103.85498042462493 20.82705919012409 H 0.0 **** 0.06
22618 H 59.15379542131788 105.45083346650136 20.208666232273686 H 0.0 **** 0.06
22619 H 58.465731055842326 104.83471244828496 21.730582543596427 H 0.0 **** 0.06
22620 H 58.002880058171996 104.09219109332767 20.180634525981475 H 0.0 **** 0.06
22621 C 89.41061772613682 7.121150101258621 118.67729622789052 C 0.0 **** -0.24
22622 H 89.90683064674562 7.734866492519302 119.4287013133531 H 0.0 **** 0.06
22623 H 90.0555399951768 7.025401119071034 117.80310164368382 H 0.0 **** 0.06
22624 H 88.47120476269022 7.591084341893293 118.38697782549913 H 0.0 **** 0.06
22625 H 89.20951634347564 6.133193606744754 119.09118617695829 H 0.0 **** 0.06
22626 C 123.66197139631745 92.35852973415281 12.383411212364283 C 0.0 **** -0.24
22627 H 124.49984792910759 93.03729920780557 12.221820166753037 H 0.0 **** 0.06
22628 H 124.01831522000174 91.45282034766704 12.87397954126676 H 0.0 **** 0.06
22629 H 123.2141191434986 92.10083559533076 11.423471726358589 H 0.0 **** 0.06
22630 H 122.91665477923968 92.84510233263858 13.013307237839797 H 0.0 **** 0.06
22631 C 97.18849941899663 115.55650116326656 88.94641397129229 C 0.0 **** -0.24
22632 H 97.08063689111711 116.57530543077958 88.57338946669583 H 0.0 **** 0.06
22633 H 96.37749904847409 115.3363660996131 89.64061830701425 H 0.0 **** 0.06
22634 H 98.14438129679517 115.45688676265785 89.46044947712684 H 0.0 **** 0.06
22635 H 97.15049106697666 114.85811713802033 88.1104427865115 H 0.0 **** 0.06
22636 C 124.02200115879937 42.59230374570626 84.37704070729148 C 0.0 **** -0.24
22637 H 123.74863813057452 43.48688887917966 83.81787813899007 H 0.0 **** 0.06
22638 H 123.12350052895924 42.135956389517105 84.79385778895653 H 0.0 **** 0.06
22639 H 124.70033106170975 42.86225840062981 85.18610480041423 H 0.0 **** 0.06
22640 H 124.51433305755572 41.883932563463276 83.71104576983896 H 0.0 **** 0.06
22641 C 43.163216288396626 86.29215437230376 6.489716915629948 C 0.0 **** -0.24
22642 H 43.43505417710827 87.34700393119331 6.537270236365753 H 0.0 **** 0.06
22643 H 43.799920002774485 85.78635491961263 5.764698339942001 H 0.0 **** 0.06
22644 H 42.119762540153204 86.19994075220794 6.186069578095143 H 0.0 **** 0.06
22645 H 43.29773166280589 85.83817273010699 7.471661927399293 H 0.0 **** 0.06
22646 C 21.587608137343857 32.376485020210566 109.43711914854671 C 0.0 **** -0.24
22647 H 21.262132988625794 32.714658771092246 108.4532730443766 H 0.0 **** 0.06
22648 H 20.815327126940325 32.60391200178563 110.17266844909187 H 0.0 **** 0.06
22649 H 22.510407391267485 32.88746970141912 109.70894780155905 H 0.0 **** 0.06
22650 H 21.76229445851353 31.300367236096164 109.41228031249727 H 0.0 **** 0.06
22651 C 101.01509948643644 105.45249623383964 25.290656236637204 C 0.0 **** -0.24
22652 H 101.81806643723633 104.95541907974457 24.746321699820868 H 0.0 **** 0.06
22653 H 100.31080573033368 104.70578254461189 25.659962045055323 H 0.0 **** 0.06
22654 H 100.4974955791805 106.14150205847002 24.622666778549302 H 0.0 **** 0.06
22655 H 101.43289356073768 106.00579394654032 26.13059275612835 H 0.0 **** 0.06
22656 C 82.1112302761145 46.557563642207754 53.16359652227368 C 0.0 **** -0.24
22657 H 81.41705101015498 45.99324631681225 53.7860037764477 H 0.0 **** 0.06
22658 H 82.36229851156634 47.49552796191955 53.65883927268388 H 0.0 **** 0.06
22659 H 81.64591645797054 46.76884610154491 52.200159680579105 H 0.0 **** 0.06
22660 H 83.01741528307241 45.97345143090769 53.00882162469111 H 0.0 **** 0.06
22661 C 6.758693969739852 34.346781181425534 25.022961265879502 C 0.0 **** -0.24
22662 H 7.581653323535022 34.67100426356317 24.38707847128191 H 0.0 **** 0.06
22663 H 5.912999471791267 35.024012403611046 24.896666034426914 H 0.0 **** 0.06
22664 H 7.078962633081062 34.35615751693654 26.064946289881874 H 0.0 **** 0.06
22665 H 6.459002287876359 33.33707227650904 24.74344472684524 H 0.0 **** 0.06
22666 C 7.445739086256225 43.775901411895404 61.34798933208003 C 0.0 **** -0.24
22667 H 7.740881459246879 44.05166306605131 60.335383673683 H 0.0 **** 0.06
22668 H 6.9070919992241215 44.605527267941994 61.80717559535037 H 0.0 **** 0.06
22669 H 8.333959898753932 43.5472171623394 61.9363531412161 H 0.0 **** 0.06
22670 H 6.799204041214523 42.89861367508559 61.310155201057114 H 0.0 **** 0.06
22671 C 82.54639072216722 43.23196022728439 10.937218415712266 C 0.0 **** -0.24
22672 H 82.16025827343624 43.207458910238074 11.956066346294506 H 0.0 **** 0.06
22673 H 81.75859920662487 42.93821084370995 10.24247845477089 H 0.0 **** 0.06
22674 H 83.38499563942001 42.53984469534913 10.849835994016473 H 0.0 **** 0.06
22675 H 82.88195280480758 44.24113952020082 10.699763336940293 H 0.0 **** 0.06
22676 C 33.37507671858526 17.673397519292877 60.147785483924466 C 0.0 **** -0.24
22677 H 32.94129753239116 18.593807537045507 59.75554221584136 H 0.0 **** 0.06
22678 H 33.71032931605862 17.048208960247777 59.31974278461436 H 0.0 **** 0.06
22679 H 32.62351929504797 17.136575336069143 60.726588633441054 H 0.0 **** 0.06
22680 H 34.22321966946524 17.915032088267694 60.787774495581246 H 0.0 **** 0.06
22681 C 62.49103200229206 60.90781828661761 22.897928168828457 C 0.0 **** -0.24
22682 H 62.19879906837298 60.19178215917759 22.1306701852493 H 0.0 **** 0.06
22683 H 62.90217813608615 61.799673473234805 22.42513446824927 H 0.0 **** 0.06
22684 H 63.244083304929404 60.45915294723841 23.546477244979712 H 0.0 **** 0.06
22685 H 61.61781024187076 61.18020448067284 23.491482104462023 H 0.0 **** 0.06
22686 C 22.230526881844867 23.026765265310274 26.42912807126376 C 0.0 **** -0.24
22687 H 21.658249269653425 22.10135786193058 26.489395374141935 H 0.0 **** 0.06
22688 H 22.98950997934861 22.934254954641318 25.65248968054607 H 0.0 **** 0.06
22689 H 22.712731490811493 23.21806857676941 27.387196652733508 H 0.0 **** 0.06
22690 H 21.561020543722293 23.85268167164682 26.1878272489499 H 0.0 **** 0.06
22691 C 60.40605494287314 118.82186256075114 4.827648127041613 C 0.0 **** -0.24
22692 H 61.337819185165515 118.46614345538738 5.26838508763862 H 0.0 **** 0.06
22693 H 59.66585852304952 118.02192778754315 4.8498592788415635 H 0.0 **** 0.06
22694 H 60.584427494888516 119.1236035497319 3.796120496981331 H 0.0 **** 0.06
22695 H 60.03785459576483 119.6741997350284 5.398095774409853 H 0.0 **** 0.06
22696 C 103.6216647383435 20.709673115909567 70.94566205257013 C 0.0 **** -0.24
22697 H 104.48623838561934 20.548251834048486 70.30079900164134 H 0.0 **** 0.06
22698 H 103.18740559476527 21.687177312691432 70.73326076271013 H 0.0 **** 0.06
22699 H 103.93504248062717 20.670311469434964 71.98916758122027 H 0.0 **** 0.06
22700 H 102.87922686180576 19.933601539275344 70.75948843019916 H 0.0 **** 0.06
22701 C 91.48453588812006 94.10843379213745 91.34396290168598 C 0.0 **** -0.24
22702 H 92.08480592629874 94.9178313443072 90.92824520920533 H 0.0 **** 0.06
22703 H 92.10126025470318 93.50432102107078 92.00982816839556 H 0.0 **** 0.06
22704 H 91.10517980246368 93.48514954579503 90.5340151057887 H 0.0 **** 0.06
22705 H 90.64844929620305 94.52795159532015 91.90322734285708 H 0.0 **** 0.06
22706 C 69.07104543711387 27.830365059477884 87.68053889004446 C 0.0 **** -0.24
22707 H 69.21927005846516 28.908187942648368 87.74030472651967 H 0.0 **** 0.06
22708 H 68.41725492508925 27.600332213837987 86.83934476500994 H 0.0 **** 0.06
22709 H 68.61551497925763 27.474332477369302 88.60482376743013 H 0.0 **** 0.06
22710 H 70.03434521581767 27.338987866835623 87.5376585566319 H 0.0 **** 0.06
22711 C 106.28496398851982 100.04213745140339 13.88840740727619 C 0.0 **** -0.24
22712 H 106.38161791661926 99.4758574639119 14.814842894228946 H 0.0 **** 0.06
22713 H 106.82729351420569 100.98358416399918 13.979217712133561 H 0.0 **** 0.06
22714 H 105.23105147743182 100.24560502510701 13.696256103754365 H 0.0 **** 0.06
22715 H 106.69942534473721 99.46226583574389 13.063813328770607 H 0.0 **** 0.06
22716 C 55.63843803781401 54.23201185272114 109.12435952567517 C 0.0 **** -0.24
22717 H 55.299055429208124 54.6129213256425 108.16158017505313 H 0.0 **** 0.06
22718 H 55.894104323837524 53.17692715503375 109.02723212164051 H 0.0 **** 0.06
22719 H 54.84410548571066 54.34781331606092 109.86152403095086 H 0.0 **** 0.06
22720 H 56.517480652485744 54.79135751163636 109.44684100052069 H 0.0 **** 0.06
22721 C 78.19204646044858 28.30768529772061 5.481344685168921 C 0.0 **** -0.24
22722 H 77.61303702383395 29.23033802898982 5.523293790488452 H 0.0 **** 0.06
22723 H 79.21405151562743 28.50467321185522 5.805162749596931 H 0.0 **** 0.06
22724 H 78.20083143508998 27.9301200681179 4.458746503376773 H 0.0 **** 0.06
22725 H 77.73902527796446 27.56587821168921 6.1387994316314405 H 0.0 **** 0.06
22726 C 116.79509182504583 54.68217720424052 22.073480044067963 C 0.0 **** -0.24
22727 H 117.83884823857468 54.80369613032964 21.784628210881976 H 0.0 **** 0.06
22728 H 116.18843941156328 55.43403155654104 21.568637897210465 H 0.0 **** 0.06
22729 H 116.69996010639679 54.801228022438394 23.152645254196017 H 0.0 **** 0.06
22730 H 116.45288218354662 53.68690566209084 21.786050151828206 H 0.0 **** 0.06
22731 C 52.89553325820168 15.27415206265772 112.96750717123753 C 0.0 **** -0.24
22732 H 52.58907819967773 15.760820025081525 113.89261539041402 H 0.0 **** 0.06
22733 H 53.81762445567317 15.729593856205558 112.60574989463124 H 0.0 **** 0.06
22734 H 52.11277014058747 15.394495813894611 112.2174291204418 H 0.0 **** 0.06
22735 H 53.06185151579844 14.21284180589073 113.15222448584112 H 0.0 **** 0.06
22736 C 21.47022632260135 65.64400340442594 12.830423181019341 C 0.0 **** -0.24
22737 H 22.290662996748893 66.3608470667912 12.79051629218145 H 0.0 **** 0.06
22738 H 20.526338951965215 66.16186462978655 12.660802788158435 H 0.0 **** 0.06
22739 H 21.45207999576965 65.16661344900972 13.80923580453532 H 0.0 **** 0.06
22740 H 21.612582483208172 64.8859704509736 12.059160865672197 H 0.0 **** 0.06
22741 C 42.309970579578845 61.368699035031796 104.70566422997143 C 0.0 **** -0.24
22742 H 43.11440971063122 61.48257090195909 105.43145174888988 H 0.0 **** 0.06
22743 H 41.35155524905548 61.349857875371754 105.22472663928416 H 0.0 **** 0.06
22744 H 42.44506793686956 60.43634001929149 104.15767694679026 H 0.0 **** 0.06
22745 H 42.32854039532381 62.206441047361864 104.00748497600884 H 0.0 **** 0.06
22746 C 83.05514331085814 32.14285724594109 55.44536958925275 C 0.0 **** -0.24
22747 H 84.09862105856806 32.42550351320394 55.58759838692191 H 0.0 **** 0.06
22748 H 82.44361631144446 32.60821990727864 56.218887572228255 H 0.0 **** 0.06
22749 H 82.96015395974969 31.058459217331745 55.50971007651799 H 0.0 **** 0.06
22750 H 82.71849248507354 32.478916326945765 54.46439086944616 H 0.0 **** 0.06
22751 C 30.86570646293785 117.50963229315323 60.38320026166548 C 0.0 **** -0.24
22752 H 31.506148347984208 116.65600365772532 60.16100427170113 H 0.0 **** 0.06
22753 H 31.106625458207716 118.33088433983917 59.708924524862724 H 0.0 **** 0.06
22754 H 31.028771740041933 117.82590388791704 61.41353161908596 H 0.0 **** 0.06
22755 H 29.821902204668675 117.22381271923608 60.25196929411794 H 0.0 **** 0.06
22756 C 9.029023807975989 83.66790808850726 4.925781595769834 C 0.0 **** -0.24
22757 H 9.79646695994981 84.41013566894281 4.705431983387825 H 0.0 **** 0.06
22758 H 9.060259700775077 82.8799543106058 4.172868650386022 H 0.0 **** 0.06
22759 H 8.049091297314902 84.14522442267037 4.912815965602164 H 0.0 **** 0.06
22760 H 9.211559305264814 83.23788159159864 5.910627124004748 H 0.0 **** 0.06
22761 C 98.69834137929746 24.006110015271304 87.58506874902321 C 0.0 **** -0.24
22762 H 99.34030495482932 24.88563935126831 87.54161079533839 H 0.0 **** 0.06
22763 H 99.28904236297245 23.140870929710218 87.88702804141647 H 0.0 **** 0.06
22764 H 98.2637554748329 23.82457640350748 86.60229750264313 H 0.0 **** 0.06
22765 H 97.90075380421284 24.17418242850357 88.30907113597891 H 0.0 **** 0.06
22766 C 55.77138114488832 38.07175447584146 66.9720239570515 C 0.0 **** -0.24
22767 H 56.44717602132246 37.84346796446468 67.7957036373223 H 0.0 **** 0.06
22768 H 56.286194292198104 37.91174446431691 66.02451673127597 H 0.0 **** 0.06
22769 H 55.45216771255859 39.11153936169879 67.04185141118947 H 0.0 **** 0.06
22770 H 54.89896374932171 37.419631053360746 67.02676612544465 H 0.0 **** 0.06
22771 C 0.17297512621848377 41.44207959241814 66.30266321822256 C 0.0 **** -0.24
22772 H 0.652792110404615 42.419921449556185 66.31794694708398 H 0.0 **** 0.06
22773 H 0.6990852201542417 40.7679425808644 66.97969515794713 H 0.0 **** 0.06
22774 H 0.20470275528862736 41.03769555289904 65.29112795260451 H 0.0 **** 0.06
22775 H -0.8647960126025254 41.54177254055321 66.62176527155086 H 0.0 **** 0.06
22776 C 109.83848873405398 46.09631968437746 39.751351647245215 C 0.0 **** -0.24
22777 H 110.86847068593389 46.374022718307515 39.97687980649779 H 0.0 **** 0.06
22778 H 109.16546056090857 46.871290076731455 40.11784266116433 H 0.0 **** 0.06
22779 H 109.60285659276724 45.14928012551698 40.237230537000315 H 0.0 **** 0.06
22780 H 109.71907246487896 45.99053655360791 38.672864087335114 H 0.0 **** 0.06
22781 C 99.662999174742 93.96351915874705 42.38252118451901 C 0.0 **** -0.24
22782 H 100.25293491766632 93.13001913440552 42.00194634576455 H 0.0 **** 0.06
22783 H 100.0069606620474 94.89097844285607 41.92318192792082 H 0.0 **** 0.06
22784 H 99.77917754258976 94.02752379716203 43.46346271345137 H 0.0 **** 0.06
22785 H 98.6128007993155 93.8050825760024 42.1385336871492 H 0.0 **** 0.06
22786 C 48.30322923017377 121.31735334073579 27.778942464096588 C 0.0 **** -0.24
22787 H 47.96032297725184 122.13298177249627 28.41594191221452 H 0.0 **** 0.06
22788 H 47.44856929764965 120.87234344858504 27.268959790653923 H 0.0 **** 0.06
22789 H 48.79634334214398 120.56228763828454 28.38952813153611 H 0.0 **** 0.06
22790 H 49.00575476343459 121.7043333708639 27.040405347723038 H 0.0 **** 0.06
22791 C 101.91574493372933 75.08074196901464 40.17731285300398 C 0.0 **** -0.24
22792 H 101.54568284032247 74.86723198541713 39.174112331619845 H 0.0 **** 0.06
22793 H 102.8904994001548 75.56448086401579 40.109687769094535 H 0.0 **** 0.06
22794 H 102.00945168557143 74.14794182481978 40.73488233989355 H 0.0 **** 0.06
22795 H 101.21644404048543 75.74065524215649 40.68950946827025 H 0.0 **** 0.06
22796 C 52.51058064988486 22.74297009781685 33.553492999896434 C 0.0 **** -0.24
22797 H 51.687156240118156 22.03646207806611 33.45499781683134 H 0.0 **** 0.06
22798 H 53.02136504528251 22.841126224240327 32.59552515566432 H 0.0 **** 0.06
22799 H 53.212230261018945 22.380121320446335 34.3042134975137 H 0.0 **** 0.06
22800 H 52.12157105311971 23.714170768514578 33.859235529576296 H 0.0 **** 0.06
22801 C 49.15084349017762 111.96395224923008 45.622776920666126 C 0.0 **** -0.24
22802 H 48.41573959076891 111.70823555658932 44.859508979282964 H 0.0 **** 0.06
22803 H 49.213950167139274 111.15503055606183 46.350381160296166 H 0.0 **** 0.06
22804 H 48.8466153246309 112.88261552224071 46.12496090333781 H 0.0 **** 0.06
22805 H 50.12415073582929 112.11027820022636 45.15508963757682 H 0.0 **** 0.06
22806 C 112.54420572331068 52.96774456497732 85.73451257419318 C 0.0 **** -0.24
22807 H 113.36539580453672 53.440229472536345 86.2748501055885 H 0.0 **** 0.06
22808 H 112.9213127859617 52.533258318108 84.80886595914612 H 0.0 **** 0.06
22809 H 111.78546461844718 53.71518605448125 85.50239219632039 H 0.0 **** 0.06
22810 H 112.10616179540375 52.183923836457794 86.35224413100383 H 0.0 **** 0.06
22811 C 67.8065027795597 40.97461891462038 73.40514405915317 C 0.0 **** -0.24
22812 H 67.49300196934867 39.9320755971645 73.35560261028459 H 0.0 **** 0.06
22813 H 66.9490943581753 41.59977141323097 73.652691657589 H 0.0 **** 0.06
22814 H 68.2109949930316 41.27720370693683 72.43849402982694 H 0.0 **** 0.06
22815 H 68.57280352536458 41.08761567413052 74.17139764265129 H 0.0 **** 0.06
22816 C 45.78357509322797 42.223482080042885 5.36571543116187 C 0.0 **** -0.24
22817 H 45.79925472768468 43.26470997603061 5.043892004832198 H 0.0 **** 0.06
22818 H 46.247420750513925 42.14016120044895 6.348838807152102 H 0.0 **** 0.06
22819 H 46.33711300593603 41.61422592843491 4.651106141665203 H 0.0 **** 0.06
22820 H 44.75264954560424 41.87499442273294 5.418389118005109 H 0.0 **** 0.06
22821 C 46.33835453456663 45.15493320051715 89.80666855120427 C 0.0 **** -0.24
22822 H 46.93201963241815 45.470066686772185 90.66407235304729 H 0.0 **** 0.06
22823 H 45.89594736927552 44.17995559769314 90.00945229049677 H 0.0 **** 0.06
22824 H 46.97776649722857 45.08938522638206 88.92686092219009 H 0.0 **** 0.06
22825 H 45.5474616383153 45.88331388455504 89.62615057011897 H 0.0 **** 0.06
22826 C 48.31000104229116 7.464073715605746 123.09833975828738 C 0.0 **** -0.24
22827 H 48.70881165744231 8.131578407907224 123.86311250914585 H 0.0 **** 0.06
22828 H 48.5061081144201 7.883399766435744 122.11174087159719 H 0.0 **** 0.06
22829 H 47.23475535060402 7.352483069556204 123.23986348715015 H 0.0 **** 0.06
22830 H 48.79079119505229 6.489318218767345 123.1823235144977 H 0.0 **** 0.06
22831 C 18.215560101875 9.753561114675648 106.27140005760047 C 0.0 **** -0.24
22832 H 18.224839047854076 10.693141338518316 106.8239727842437 H 0.0 **** 0.06
22833 H 19.237917170603467 9.466408916913622 106.02461599890871 H 0.0 **** 0.06
22834 H 17.64031600668956 9.878576835020397 105.35379991029767 H 0.0 **** 0.06
22835 H 17.757328373764636 8.977070523062395 106.88405229160193 H 0.0 **** 0.06
22836 C 118.89830630550492 99.2193486702655 35.427883656929595 C 0.0 **** -0.24
22837 H 118.49802461713116 99.35545962823625 36.43253985844413 H 0.0 **** 0.06
22838 H 119.6344795845566 99.99754138510696 35.22231177269066 H 0.0 **** 0.06
22839 H 118.08693287061433 99.28579049014928 34.702956523158804 H 0.0 **** 0.06
22840 H 119.37320645954895 98.24102540583334 35.355398277659646 H 0.0 **** 0.06
22841 C 66.59489097888451 111.59055717179666 90.00754254682872 C 0.0 **** -0.24
22842 H 66.91678218081807 112.63071654185055 90.06454503093238 H 0.0 **** 0.06
22843 H 66.48751473977745 111.30097943584792 88.96197867443324 H 0.0 **** 0.06
22844 H 65.63712114905852 111.47830232543294 90.51549185603291 H 0.0 **** 0.06
22845 H 67.33792754030719 110.95351878381649 90.48701773119788 H 0.0 **** 0.06
22846 C 9.24497549458863 16.640928491280903 95.21683439924529 C 0.0 **** -0.24
22847 H 9.504699090562042 17.69567986973476 95.12192424884846 H 0.0 **** 0.06
22848 H 9.71112485512657 16.231497970953086 96.11337506343096 H 0.0 **** 0.06
22849 H 9.600884662699912 16.098878121507028 94.34104690498326 H 0.0 **** 0.06
22850 H 8.161891159390905 16.53971236782533 95.29128147320847 H 0.0 **** 0.06
22851 C 103.92106245151481 95.99058919185524 0.19862133026424544 C 0.0 **** -0.24
22852 H 104.33611676730469 95.09840303633372 -0.27092581340963307 H 0.0 **** 0.06
22853 H 103.16678127370214 96.42748087103527 -0.45615672103048155 H 0.0 **** 0.06
22854 H 104.71712544720017 96.71471702498275 0.3705610595209521 H 0.0 **** 0.06
22855 H 103.46415525477224 95.71970894913952 1.1501093127463093 H 0.0 **** 0.06
22856 C 66.74882710627699 35.41512064792994 64.716548770049 C 0.0 **** -0.24
22857 H 67.29736608863041 35.13534492958178 65.61644003350659 H 0.0 **** 0.06
22858 H 65.96017327104349 34.68622633326919 64.53137889222816 H 0.0 **** 0.06
22859 H 67.43228473719213 35.43536421310017 63.86758435349208 H 0.0 **** 0.06
22860 H 66.30871807646992 36.40335593181584 64.85237515759509 H 0.0 **** 0.06
22861 C 62.906168766660045 110.96964859600786 22.084053734829894 C 0.0 **** -0.24
22862 H 61.92616509095589 110.7234386903144 21.67524915139444 H 0.0 **** 0.06
22863 H 63.280990940256004 110.12421221540171 22.662298019720673 H 0.0 **** 0.06
22864 H 62.82176132677154 111.84398799461519 22.73000013104918 H 0.0 **** 0.06
22865 H 63.59552128384831 111.18618714530172 21.26807281530045 H 0.0 **** 0.06
22866 C 92.6422352930277 63.211754878786735 2.889572546085617 C 0.0 **** -0.24
22867 H 93.06402502582635 62.54038545791775 3.6384198599725437 H 0.0 **** 0.06
22868 H 92.6513644719389 64.23302240726801 3.2710067148604196 H 0.0 **** 0.06
22869 H 91.61649025508224 62.91291529409534 2.671637297753051 H 0.0 **** 0.06
22870 H 93.23746362945097 63.15846160034812 1.9781452331264688 H 0.0 **** 0.06
22871 C 7.567131633722397 75.19938620629776 121.54858683713147 C 0.0 **** -0.24
22872 H 7.921276695476763 74.84074024675422 120.58208952144196 H 0.0 **** 0.06
22873 H 7.784416172915542 76.26346084412447 121.64323523152518 H 0.0 **** 0.06
22874 H 8.072038152264213 74.65224943604457 122.34539580278988 H 0.0 **** 0.06
22875 H 6.491969098105301 75.03982380801901 121.62372015386296 H 0.0 **** 0.06
22876 C 69.37007743681033 24.028261829940618 107.75964788683484 C 0.0 **** -0.24
22877 H 69.04660249451754 24.302298412720006 106.75540955519449 H 0.0 **** 0.06
22878 H 70.35243761834602 24.4596096701423 107.95376449495302 H 0.0 **** 0.06
22879 H 69.42727030198046 22.943193332861824 107.83974772468966 H 0.0 **** 0.06
22880 H 68.65475439683536 24.410311131561457 108.48798571220902 H 0.0 **** 0.06
22881 C 64.84275966398533 113.2091368886251 58.619271846514096 C 0.0 **** -0.24
22882 H 65.13605671916542 113.62689670437925 57.6564077560175 H 0.0 **** 0.06
22883 H 64.99645200551916 112.13033818047688 58.61001512201834 H 0.0 **** 0.06
22884 H 63.79021647700148 113.42559061474992 58.80307976676295 H 0.0 **** 0.06
22885 H 65.44854080351172 113.65570285302749 59.409007791788696 H 0.0 **** 0.06
22886 C 64.688953387596 90.17969570162823 16.286217793432343 C 0.0 **** -0.24
22887 H 64.0439055209238 89.6373755147754 16.976987459765013 H 0.0 **** 0.06
22888 H 65.65356005102424 89.67728636759614 16.219558125650565 H 0.0 **** 0.06
22889 H 64.83246841159311 91.19841246892825 16.64736642052054 H 0.0 **** 0.06
22890 H 64.22384887459012 90.20602688188157 15.300078735200472 H 0.0 **** 0.06
22891 C 68.93833202339488 38.69370242233994 94.35713589102566 C 0.0 **** -0.24
22892 H 68.69346189246815 38.888796440258844 95.40156620977295 H 0.0 **** 0.06
22893 H 68.44675191900842 37.7756110622445 94.03474640193078 H 0.0 **** 0.06
22894 H 70.01769894737708 38.58555311591827 94.25161117708772 H 0.0 **** 0.06
22895 H 68.59498852743641 39.525093437785415 93.74194575707169 H 0.0 **** 0.06
22896 C 27.753688778436043 9.188065211365327 25.267055978768212 C 0.0 **** -0.24
22897 H 26.889803689349378 8.900392976003246 24.6679491949254 H 0.0 **** 0.06
22898 H 27.580179920046135 10.171622199309141 25.705463460183722 H 0.0 **** 0.06
22899 H 28.639805187147587 9.224761129059686 24.63355474389732 H 0.0 **** 0.06
22900 H 27.904381896849173 8.45763683163868 26.0610941388465 H 0.0 **** 0.06
22901 C 21.40531968356362 88.51595387872922 2.0726453934327083 C 0.0 **** -0.24
22902 H 20.744014382562938 87.6543889594727 1.9860091226769327 H 0.0 **** 0.06
22903 H 22.20459324894344 88.43652237521155 1.3352844567019133 H 0.0 **** 0.06
22904 H 21.835638107363962 88.54468724349377 3.0734701186843836 H 0.0 **** 0.06
22905 H 20.836534146712296 89.42904469829952 1.8955609429422395 H 0.0 **** 0.06
22906 C 20.415534444044624 86.79044456160969 44.330764118135306 C 0.0 **** -0.24
22907 H 20.031417430381737 87.29836028319173 43.44612834745267 H 0.0 **** 0.06
22908 H 21.295342138843182 86.20628709103073 44.06134406441966 H 0.0 **** 0.06
22909 H 19.648042677336093 86.12943474602133 44.73184397457791 H 0.0 **** 0.06
22910 H 20.6871927535841 87.52985689795392 45.08429771368087 H 0.0 **** 0.06
22911 C 30.81544662919721 87.01044687505637 23.50143679710257 C 0.0 **** -0.24
22912 H 30.74798827326309 86.47697651094339 22.552958287718795 H 0.0 **** 0.06
22913 H 31.287971717695875 87.97932745242693 23.339636984912033 H 0.0 **** 0.06
22914 H 31.40988874983161 86.4280031681264 24.20517509148931 H 0.0 **** 0.06
22915 H 29.813832133766766 87.1575807212738 23.907230856276243 H 0.0 **** 0.06
22916 C 36.85216678112354 74.11546220045788 83.13306750376722 C 0.0 **** -0.24
22917 H 37.103424371519 73.55845899495982 82.23006429409338 H 0.0 **** 0.06
22918 H 35.95927970348484 73.68734430004545 83.58747522694469 H 0.0 **** 0.06
22919 H 36.66661366437981 75.15785068664034 82.87584009117438 H 0.0 **** 0.06
22920 H 37.68225614555732 74.05727080903046 83.83724796851243 H 0.0 **** 0.06
22921 C 103.47864765095837 12.453120767409757 111.24932413091844 C 0.0 **** -0.24
22922 H 102.75117610749105 12.328803139965657 112.05158281613492 H 0.0 **** 0.06
22923 H 104.44664549008795 12.072148511380732 111.57544228840376 H 0.0 **** 0.06
22924 H 103.56902271464007 13.510870907652617 111.00243004817884 H 0.0 **** 0.06
22925 H 103.14745329384073 11.901698280058781 110.37064095477385 H 0.0 **** 0.06
22926 C 47.70925581170923 21.375586971160644 22.061993748478116 C 0.0 **** -0.24
22927 H 47.071528320124656 20.956546938604845 22.840114424492242 H 0.0 **** 0.06
22928 H 48.0057714631277 22.386850250229067 22.341054269797553 H 0.0 **** 0.06
22929 H 47.16222863025979 21.40352468167579 21.11954032182726 H 0.0 **** 0.06
22930 H 48.597737945426246 20.754416288491356 21.948975236444568 H 0.0 **** 0.06
22931 C 17.68316360310202 31.778023659062683 117.24866048291801 C 0.0 **** -0.24
22932 H 18.01566467330104 32.23881872628317 118.17833817032545 H 0.0 **** 0.06
22933 H 17.641762733052822 32.53316990519738 116.46330651418806 H 0.0 **** 0.06
22934 H 16.691613470143054 31.347560503027864 117.39124922612177 H 0.0 **** 0.06
22935 H 18.382279180936177 30.992877301028614 116.96069466121891 H 0.0 **** 0.06
22936 C 98.50541454165364 100.49477220967168 118.2791904606409 C 0.0 **** -0.24
22937 H 98.3478015652334 99.849198994576 117.41575196909693 H 0.0 **** 0.06
22938 H 97.56239591836913 100.96681831795183 118.55737228899673 H 0.0 **** 0.06
22939 H 99.237583887244 101.26347642792174 118.02841630758523 H 0.0 **** 0.06
22940 H 98.87534960375478 99.90074765190366 119.1145122838137 H 0.0 **** 0.06
22941 C 75.1087791266034 56.00294195198059 63.09361881820587 C 0.0 **** -0.24
22942 H 75.58373681021209 56.98179650494531 63.02456310282719 H 0.0 **** 0.06
22943 H 74.0258645681161 56.12438901634175 63.09303413617158 H 0.0 **** 0.06
22944 H 75.41943195826667 55.512855953317185 64.01596484986646 H 0.0 **** 0.06
22945 H 75.40692641033098 55.393600666407636 62.23932425300251 H 0.0 **** 0.06
22946 C 53.93683791145662 121.78668601508265 39.71486453015223 C 0.0 **** -0.24
22947 H 54.61462994830387 122.29094054836555 40.40358437344349 H 0.0 **** 0.06
22948 H 53.56841134291557 120.86963679785752 40.1737820195043 H 0.0 **** 0.06
22949 H 54.46873516569502 121.54413843837398 38.79404273719899 H 0.0 **** 0.06
22950 H 53.09722721007853 122.44282662705415 39.487252952944516 H 0.0 **** 0.06
22951 C 102.98365456678539 99.14156582587043 84.49118144700321 C 0.0 **** -0.24
22952 H 102.57756895685543 99.53968956031443 85.42148339674281 H 0.0 **** 0.06
22953 H 102.16649608262202 98.91761436451453 83.80481382680435 H 0.0 **** 0.06
22954 H 103.54428893943155 98.2310814048132 84.70025527946629 H 0.0 **** 0.06
22955 H 103.64567751939943 99.88033508716164 84.03944557641617 H 0.0 **** 0.06
22956 C 55.14258037457503 81.37202687473408 60.147552080120875 C 0.0 **** -0.24
22957 H 55.79972220720984 81.40524642311297 59.27863391785752 H 0.0 **** 0.06
22958 H 55.55297367213646 80.68403430455001 60.886489326925926 H 0.0 **** 0.06
22959 H 54.15386946450266 81.02984069689225 59.841215527527254 H 0.0 **** 0.06
22960 H 55.064718410832 82.36807244062666 60.581810505249564 H 0.0 **** 0.06
22961 C 14.550803376678434 100.01328669332264 102.05235117020672 C 0.0 **** -0.24
22962 H 14.610422936002418 100.68878850104483 101.19918031715858 H 0.0 **** 0.06
22963 H 13.516995282925986 99.69776404707204 102.19545612845806 H 0.0 **** 0.06
22964 H 14.901387099411757 100.52718296961234 102.9475748265431 H 0.0 **** 0.06
22965 H 15.176573877483069 99.13920636878146 101.86831952315114 H 0.0 **** 0.06
22966 C 78.42557816765725 114.2927874859673 40.53424200598579 C 0.0 **** -0.24
22967 H 78.12109374645419 115.30461412203954 40.8032603032392 H 0.0 **** 0.06
22968 H 77.69094626956377 113.57964249940372 40.91018613677596 H 0.0 **** 0.06
22969 H 79.39946618004046 114.07817985173031 40.97386729266901 H 0.0 **** 0.06
22970 H 78.49050565601141 114.21041864681553 39.44969949597521 H 0.0 **** 0.06
22971 C 118.18395723789263 35.403792727331904 2.4970539444967983 C 0.0 **** -0.24
22972 H 118.41640703813218 34.341494984729536 2.431165885087921 H 0.0 **** 0.06
22973 H 117.34956083742482 35.55173750880334 3.1825433245249 H 0.0 **** 0.06
22974 H 117.91483187256298 35.777962729245075 1.5087730585089218 H 0.0 **** 0.06
22975 H 119.05646337591851 35.94471633715966 2.863890982322019 H 0.0 **** 0.06
22976 C 86.00102153460176 78.87637956026013 65.14063605319765 C 0.0 **** -0.24
22977 H 85.79652012026168 79.92496829675613 64.92460935060862 H 0.0 **** 0.06
22978 H 85.44441229367328 78.57282998346294 66.02803539159783 H 0.0 **** 0.06
22979 H 87.06829262746828 78.74415033841531 65.3176404105026 H 0.0 **** 0.06
22980 H 85.69450477501681 78.26433602696572 64.29279358072299 H 0.0 **** 0.06
22981 C 58.548798586651486 81.663561365162 63.249933739813 C 0.0 **** -0.24
22982 H 58.15484174896662 82.42086112819308 63.92880991786747 H 0.0 **** 0.06
22983 H 58.132340351658485 80.69044510281626 63.510433247660316 H 0.0 **** 0.06
22984 H 59.63527757702403 81.62951301714074 63.337322990588774 H 0.0 **** 0.06
22985 H 58.274203740630554 81.91540161710847 62.225391458057885 H 0.0 **** 0.06
22986 C 14.292429873376097 49.408460085234964 101.42114327665126 C 0.0 **** -0.24
22987 H 15.358409405630965 49.18845019677414 101.47529093152518 H 0.0 **** 0.06
22988 H 13.723493543547118 48.50128799606722 101.62446556823966 H 0.0 **** 0.06
22989 H 14.047544406826145 49.77623357297608 100.42354636324595 H 0.0 **** 0.06
22990 H 14.04033755851659 50.169418830232644 102.16050044488333 H 0.0 **** 0.06
22991 C 8.699151965374597 97.58328615894233 13.467523939225956 C 0.0 **** -0.24
22992 H 8.293829068971831 97.9280776330666 12.516879509789987 H 0.0 **** 0.06
22993 H 8.33538517933394 98.22351029671403 14.271675372202196 H 0.0 **** 0.06
22994 H 9.787655662676428 97.62324284877734 13.434119725658604 H 0.0 **** 0.06
22995 H 8.378841911651875 96.55604924144475 13.647158563028057 H 0.0 **** 0.06
22996 C 56.83204073599734 84.96935524474412 56.01335645224515 C 0.0 **** -0.24
22997 H 55.90117364511913 84.46065033156351 56.26195939594061 H 0.0 **** 0.06
22998 H 56.74303278888398 86.02825101308837 56.255246969382824 H 0.0 **** 0.06
22999 H 57.03510021802397 84.8549532826689 54.948310080495844 H 0.0 **** 0.06
23000 H 57.64902806418996 84.53185413672382 56.587711941784846 H 0.0 **** 0.06
23001 C 110.22092099054811 60.95528978400125 36.848846113947886 C 0.0 **** -0.24
23002 H 109.67792958946622 61.60414662723764 36.16042260152997 H 0.0 **** 0.06
23003 H 109.51900883779966 60.28214709811408 37.342314477902995 H 0.0 **** 0.06
23004 H 110.72908298675019 61.56432762649075 37.59615058550592 H 0.0 **** 0.06
23005 H 110.95559168858624 60.37121814202089 36.29420567977302 H 0.0 **** 0.06
23006 C 49.90548646359283 96.35808019991428 22.390215566506782 C 0.0 **** -0.24
23007 H 48.93262079548308 96.81035902714368 22.197747492643742 H 0.0 **** 0.06
23008 H 49.9928652135987 96.12088217609144 23.45000597143168 H 0.0 **** 0.06
23009 H 50.69264825169149 97.05729859297219 22.1070942204081 H 0.0 **** 0.06
23010 H 50.003214635697304 95.44493753189838 21.8033115155392 H 0.0 **** 0.06
23011 C 5.746869678422996 63.185733536386465 15.275747123014554 C 0.0 **** -0.24
23012 H 6.301392810592802 64.00377254838185 15.73596337457488 H 0.0 **** 0.06
23013 H 6.440668953353878 62.3986201498966 14.978668266936467 H 0.0 **** 0.06
23014 H 5.216825893490977 63.55432293693099 14.39783760819219 H 0.0 **** 0.06
23015 H 5.029455259959633 62.78586047085031 15.992550308035874 H 0.0 **** 0.06
23016 C 58.58343073255867 123.35084539954188 72.79191623450865 C 0.0 **** -0.24
23017 H 58.66102166229608 122.48705091896845 72.13124045957818 H 0.0 **** 0.06
23018 H 58.27745905961592 123.02171619970221 73.78477019700941 H 0.0 **** 0.06
23019 H 57.84360397290193 124.04559949697244 72.39506892716166 H 0.0 **** 0.06
23020 H 59.55157091574587 123.84756959186008 72.85460883319249 H 0.0 **** 0.06
23021 C 98.8518664705433 7.716793092710532 62.7438752253741 C 0.0 **** -0.24
23022 H 98.9118352355266 8.186883622197314 63.72578172885949 H 0.0 **** 0.06
23023 H 97.94933101480574 7.107889687999574 62.6867164233106 H 0.0 **** 0.06
23024 H 99.72742893785694 7.086629174955675 62.58874788282844 H 0.0 **** 0.06
23025 H 98.81870646587289 8.488456620132183 61.973386007388285 H 0.0 **** 0.06
23026 C 72.35765197888804 58.83338317999309 87.68295529668828 C 0.0 **** -0.24
23027 H 73.2822734568775 58.554398106890076 87.17804823959139 H 0.0 **** 0.06
23028 H 72.51297218293242 59.75725392407797 88.24136398525522 H 0.0 **** 0.06
23029 H 72.06459110496213 58.038121827896845 88.3687624436499 H 0.0 **** 0.06
23030 H 71.57077117078019 58.983758861107475 86.94364651825677 H 0.0 **** 0.06
23031 C 96.90787522374741 54.31085234849728 91.99056530980002 C 0.0 **** -0.24
23032 H 96.1936710563412 53.52794885188109 92.24570689872309 H 0.0 **** 0.06
23033 H 97.914038286894 53.985056595162916 92.25241578109299 H 0.0 **** 0.06
23034 H 96.66441665599896 55.218368740259024 92.54376570179366 H 0.0 **** 0.06
23035 H 96.85750360120238 54.51429737346743 90.92099038553496 H 0.0 **** 0.06
23036 C 112.07187036457498 119.29524694383525 52.379690876176625 C 0.0 **** -0.24
23037 H 112.61340280116804 120.09469648835625 51.87571899227399 H 0.0 **** 0.06
23038 H 112.56732712029131 119.05747273915273 53.320443064741795 H 0.0 **** 0.06
23039 H 112.0558184719537 118.40936204925322 51.74304095738282 H 0.0 **** 0.06
23040 H 111.04931352880425 119.61795977687346 52.577083089073625 H 0.0 **** 0.06
23041 C 85.43191210961542 108.85419125047346 10.672397693886921 C 0.0 **** -0.24
23042 H 84.85665865426003 108.02326839669851 10.264625263743625 H 0.0 **** 0.06
23043 H 85.96708838269872 109.3550996469111 9.865283156007052 H 0.0 **** 0.06
23044 H 86.14700282141196 108.47589564851009 11.40250890974582 H 0.0 **** 0.06
23045 H 84.75806871807625 109.5607702474164 11.15637691085027 H 0.0 **** 0.06
23046 C 61.097592100106624 66.06711121432485 10.506478715858666 C 0.0 **** -0.24
23047 H 60.707765304274716 65.11419898632963 10.149258845480865 H 0.0 **** 0.06
23048 H 61.17551813852563 66.04334381003409 11.593458639006538 H 0.0 **** 0.06
23049 H 60.42227114753098 66.86900979909737 10.207840159085954 H 0.0 **** 0.06
23050 H 62.08271855224811 66.24202605337518 10.074095349772282 H 0.0 **** 0.06
23051 C 78.32383068765496 34.1620777053198 43.00647860551612 C 0.0 **** -0.24
23052 H 78.0238197569602 35.185611424476406 43.23096439560106 H 0.0 **** 0.06
23053 H 79.29483713091263 33.9604895480245 43.460977795907354 H 0.0 **** 0.06
23054 H 78.3945419809264 34.03392772419966 41.92671235288134 H 0.0 **** 0.06
23055 H 77.58338691643128 33.47081201236006 43.407329450475686 H 0.0 **** 0.06
23056 C 17.09093061853713 95.12308095419185 4.209526139631151 C 0.0 **** -0.24
23057 H 17.461361738825815 95.9171110311961 4.85722566993627 H 0.0 **** 0.06
23058 H 17.389341196740816 95.32446595006728 3.1800170372319343 H 0.0 **** 0.06
23059 H 16.00318872949532 95.08167388553342 4.271298117737388 H 0.0 **** 0.06
23060 H 17.509263901244594 94.16876756950317 4.528798611477271 H 0.0 **** 0.06
23061 C 0.6128165735399023 48.18821035901135 33.65257330819793 C 0.0 **** -0.24
23062 H -0.16526096533419832 48.93718428005184 33.797345800456355 H 0.0 **** 0.06
23063 H 0.8863969990011071 47.75801472830267 34.616629967561494 H 0.0 **** 0.06
23064 H 1.4882485523676223 48.65560400598923 33.2012931766281 H 0.0 **** 0.06
23065 H 0.24146840853836693 47.40109691119352 32.99599529209115 H 0.0 **** 0.06
23066 C 1.7865942752490156 75.23395085282479 75.85180863645941 C 0.0 **** -0.24
23067 H 2.4654777291274286 76.03048914083811 76.15458522293856 H 0.0 **** 0.06
23068 H 1.0818645756648237 75.61733123155065 75.11436697264658 H 0.0 **** 0.06
23069 H 1.2399940544329553 74.8718336169695 76.72269785235967 H 0.0 **** 0.06
23070 H 2.359260618359258 74.41497554209863 75.4171888279388 H 0.0 **** 0.06
23071 C 8.22224995785379 32.66579932367489 38.01972902286694 C 0.0 **** -0.24
23072 H 8.205843473619382 32.17621326059913 38.993739829336334 H 0.0 **** 0.06
23073 H 7.928281108381867 31.952142162632413 37.24954883488593 H 0.0 **** 0.06
23074 H 9.228269828310744 33.031276374494155 37.813233834840275 H 0.0 **** 0.06
23075 H 7.524503650639474 33.50408947272746 38.02353741584881 H 0.0 **** 0.06
23076 C 82.00444419857311 102.78844043821928 8.02870164346075 C 0.0 **** -0.24
23077 H 82.26338616285673 103.84548572696227 7.968910200254726 H 0.0 **** 0.06
23078 H 82.6618948567301 102.29392770802207 8.744730674149167 H 0.0 **** 0.06
23079 H 82.12289486413076 102.32884853542888 7.048405091525495 H 0.0 **** 0.06
23080 H 80.96910323024923 102.68651030384078 8.355541191207465 H 0.0 **** 0.06
23081 C 47.35571356147062 33.51515539083859 123.93829913460087 C 0.0 **** -0.24
23082 H 47.6414977915116 34.54896734625934 124.13375488592413 H 0.0 **** 0.06
23083 H 46.555129129064994 33.22476800951509 124.61842296725492 H 0.0 **** 0.06
23084 H 48.217944641234226 32.86519970056547 124.09263953374919 H 0.0 **** 0.06
23085 H 47.01121656359885 33.42217103533807 122.90877672642056 H 0.0 **** 0.06
23086 C 61.05201217601409 17.039996518231874 109.70091889371665 C 0.0 **** -0.24
23087 H 60.1074020348898 16.496941951814108 109.66121798458457 H 0.0 **** 0.06
23088 H 60.87217242814563 18.09645649524566 109.50178655282639 H 0.0 **** 0.06
23089 H 61.732274669536324 16.638916254828246 108.95035163573499 H 0.0 **** 0.06
23090 H 61.4948476771348 16.92732733719373 110.69008674397472 H 0.0 **** 0.06
23091 C 64.00194005869886 84.3376219010358 87.00216958577528 C 0.0 **** -0.24
23092 H 63.35263649413645 84.85424962647022 87.70917481560423 H 0.0 **** 0.06
23093 H 63.556080630177476 84.37392450726617 86.00771835609532 H 0.0 **** 0.06
23094 H 64.12128903405387 83.29866359410698 87.31043764780446 H 0.0 **** 0.06
23095 H 64.97665410471856 84.82498740653173 86.98138268023769 H 0.0 **** 0.06
23096 C 52.005525981076644 106.21112166631126 31.166406967176272 C 0.0 **** -0.24
23097 H 51.648337366466876 105.78859002470746 30.227939629075415 H 0.0 **** 0.06
23098 H 52.92593090362371 106.76727470293851 30.987783622803512 H 0.0 **** 0.06
23099 H 52.19882641231278 105.40645917979657 31.87640061358097 H 0.0 **** 0.06
23100 H 51.24825243859556 106.881739223946 31.57400192035618 H 0.0 **** 0.06
23101 C 17.812641088169926 64.36020252416793 41.08367007658228 C 0.0 **** -0.24
23102 H 18.357855873051278 64.06192051101847 41.979007093033346 H 0.0 **** 0.06
23103 H 17.973532656319094 65.42263203280355 40.898097444039934 H 0.0 **** 0.06
23104 H 16.74885031306644 64.17345416742123 41.22752381406312 H 0.0 **** 0.06
23105 H 18.17087866026452 63.78343257985654 40.231191361473776 H 0.0 **** 0.06
23106 C 63.43680207301844 41.39091403547016 41.5188105441615 C 0.0 **** -0.24
23107 H 63.198606742767936 41.30749762030803 42.58005627056423 H 0.0 **** 0.06
23108 H 62.705410811364345 42.03742360296053 41.03315331481129 H 0.0 **** 0.06
23109 H 63.40723421589772 40.401872910848226 41.06237208641326 H 0.0 **** 0.06
23110 H 64.43351862138695 41.81501167008577 41.40242343852768 H 0.0 **** 0.06
23111 C 44.708042208721025 15.779021640306865 105.23245918522952 C 0.0 **** -0.24
23112 H 44.72875014333047 14.707856857386133 105.03202243529523 H 0.0 **** 0.06
23113 H 44.16651898678995 15.964577462658752 106.16065496425477 H 0.0 **** 0.06
23114 H 44.209245931357316 16.293297097711218 104.41089558924881 H 0.0 **** 0.06
23115 H 45.728127102720265 16.150632952251556 105.32756716643934 H 0.0 **** 0.06
23116 C 15.160520543932435 44.696443448383775 89.73874267344672 C 0.0 **** -0.24
23117 H 15.439371043708007 45.22537667994583 90.65031810290147 H 0.0 **** 0.06
23118 H 16.05970046725345 44.40976812419763 89.19501265121433 H 0.0 **** 0.06
23119 H 14.548941902476045 45.34725846341661 89.1130413536606 H 0.0 **** 0.06
23120 H 14.591410204037572 43.80275704948651 89.99734433636637 H 0.0 **** 0.06
23121 C 18.47259971373552 79.91218849292532 98.5008042124623 C 0.0 **** -0.24
23122 H 17.939923363418416 78.98863235823828 98.72806109795994 H 0.0 **** 0.06
23123 H 17.75289916609711 80.6988618554821 98.27239909610392 H 0.0 **** 0.06
23124 H 19.12414830295802 79.75372985532455 97.64156443614115 H 0.0 **** 0.06
23125 H 19.071738276308224 80.20686206174764 99.3624956821684 H 0.0 **** 0.06
23126 C 105.45138888942559 41.95847635865351 1.5854025504511924 C 0.0 **** -0.24
23127 H 105.38872643545211 42.93128514673933 2.072808102420254 H 0.0 **** 0.06
23128 H 104.70411830609358 41.28942668327093 2.0130472138120012 H 0.0 **** 0.06
23129 H 106.4453738850865 41.53819124459591 1.7377670653658015 H 0.0 **** 0.06
23130 H 105.26495710804546 42.075561748351504 0.5178333896549248 H 0.0 **** 0.06
23131 C 80.99704926783171 36.44602508400135 64.509301622024 C 0.0 **** -0.24
23132 H 81.86133489956805 36.4581055892412 65.1737925146645 H 0.0 **** 0.06
23133 H 81.08690853111007 37.253490360422916 63.782023205020565 H 0.0 **** 0.06
23134 H 80.0877717256092 36.58330840692565 65.09432071195022 H 0.0 **** 0.06
23135 H 80.95340402882665 35.48968124566761 63.98759069242111 H 0.0 **** 0.06
23136 C 61.04433271062149 116.67114917148466 10.529504232579683 C 0.0 **** -0.24
23137 H 61.105207459066364 116.38647431482198 11.57924521155445 H 0.0 **** 0.06
23138 H 60.470563879296236 117.59284512303324 10.436098806374929 H 0.0 **** 0.06
23139 H 60.55242101127243 115.87836742179641 9.965833504269 H 0.0 **** 0.06
23140 H 62.04885498295921 116.82723317574622 10.135936567662867 H 0.0 **** 0.06
23141 C 80.08826992254208 77.48316327825785 58.51462584423422 C 0.0 **** -0.24
23142 H 79.63890840245674 77.62469358365624 59.49830881332787 H 0.0 **** 0.06
23143 H 80.79920405805615 78.28639531717229 58.3212876752433 H 0.0 **** 0.06
23144 H 79.30691908130353 77.49639431526327 57.75448077176998 H 0.0 **** 0.06
23145 H 80.60637938864112 76.52507923091534 58.487291009361854 H 0.0 **** 0.06
23146 C 3.8601882096041606 51.873282325661734 46.279730442610685 C 0.0 **** -0.24
23147 H 4.414549063978228 50.9703053977008 46.535963599019055 H 0.0 **** 0.06
23148 H 2.9773023485299177 51.60445195690036 45.69926121143007 H 0.0 **** 0.06
23149 H 4.4962367717090785 52.5345189851878 45.69062174856725 H 0.0 **** 0.06
23150 H 3.5536203815442775 52.383032372237835 47.19243230900409 H 0.0 **** 0.06
23151 C 57.35529402958605 107.30649515724386 54.011632668440285 C 0.0 **** -0.24
23152 H 57.01144108223946 106.32143021199064 54.32846852178841 H 0.0 **** 0.06
23153 H 57.89828165348973 107.78146826128804 54.82928647386582 H 0.0 **** 0.06
23154 H 56.49781279468124 107.92015198737866 53.73828334717554 H 0.0 **** 0.06
23155 H 58.01540613332537 107.19907814809537 53.15070623488637 H 0.0 **** 0.06
23156 C 16.725338401105404 22.72078276219637 68.45141967608629 C 0.0 **** -0.24
23157 H 17.122549302576502 23.734886197621563 68.48493663228115 H 0.0 **** 0.06
23158 H 15.635333981328884 22.7581492645253 68.43724566947861 H 0.0 **** 0.06
23159 H 17.05937270615287 22.170461787202903 69.3309772989773 H 0.0 **** 0.06
23160 H 17.083182574241988 22.2200342561612 67.55247021996024 H 0.0 **** 0.06
23161 C 113.8539160161522 55.454731884659395 24.094523746174787 C 0.0 **** -0.24
23162 H 114.51621432080498 54.598973821459765 24.228059647724166 H 0.0 **** 0.06
23163 H 113.30788128780605 55.63968412389278 25.020409556299796 H 0.0 **** 0.06
23164 H 113.14746528154588 55.24575249476652 23.291661591154906 H 0.0 **** 0.06
23165 H 114.44576671694252 56.334411411877284 23.83843495229189 H 0.0 **** 0.06
23166 C 101.92860625684943 115.90509873148628 61.91231117690447 C 0.0 **** -0.24
23167 H 102.63140599004936 116.73628591552009 61.971218868656194 H 0.0 **** 0.06
23168 H 101.15458951260925 116.02983440611314 62.669374438636936 H 0.0 **** 0.06
23169 H 102.45835771517048 114.968036705079 62.08414791929454 H 0.0 **** 0.06
23170 H 101.47005134011707 115.88805157420595 60.9231956460969 H 0.0 **** 0.06
23171 C 31.687305118476473 68.1821279655588 101.9126812767957 C 0.0 **** -0.24
23172 H 30.60602758504814 68.13526473410565 102.04361431946882 H 0.0 **** 0.06
23173 H 31.957818125442714 69.13667163144362 101.46111752995381 H 0.0 **** 0.06
23174 H 32.010218687023354 67.36835095220135 101.26274393293937 H 0.0 **** 0.06
23175 H 32.17500315854309 68.08818317589942 102.88226192500514 H 0.0 **** 0.06
23176 C 39.66574815359374 54.25138907116832 1.8580445165618187 C 0.0 **** -0.24
23177 H 38.58180785128749 54.16586494984449 1.7928320445355013 H 0.0 **** 0.06
23178 H 39.99840301672208 55.10720935398365 1.2703948678440895 H 0.0 **** 0.06
23179 H 40.126275897627096 53.342114499681315 1.469323848448397 H 0.0 **** 0.06
23180 H 39.95748543253927 54.38948218777824 2.899120572307993 H 0.0 **** 0.06
23181 C 65.27116284004182 73.1443998746533 34.06770661238397 C 0.0 **** -0.24
23182 H 66.08786006132561 72.42336204917544 34.0465697019722 H 0.0 **** 0.06
23183 H 64.52688013489586 72.83027383448467 34.79952680725074 H 0.0 **** 0.06
23184 H 64.81055416093096 73.19914192005201 33.08100873871888 H 0.0 **** 0.06
23185 H 65.65922809618075 74.12508379596353 34.342337441026814 H 0.0 **** 0.06
23186 C 22.694630227900745 104.66642551878539 117.3897045092351 C 0.0 **** -0.24
23187 H 23.11418732151583 105.07709473499536 118.30689981577659 H 0.0 **** 0.06
23188 H 23.423834832587175 104.00527919486078 116.92015264213023 H 0.0 **** 0.06
23189 H 22.448884114074218 105.4796902223164 116.70675349890746 H 0.0 **** 0.06
23190 H 21.790609303132015 104.10308416432134 117.6241857935527 H 0.0 **** 0.06
23191 C 114.95024898578527 39.034796662970905 46.67147625115249 C 0.0 **** -0.24
23192 H 114.95882846741958 39.04288705487883 45.58112369639634 H 0.0 **** 0.06
23193 H 114.67705275752965 40.0239248827493 47.039679888603146 H 0.0 **** 0.06
23194 H 115.94103575523587 38.76938034147403 47.03986930966775 H 0.0 **** 0.06
23195 H 114.22342672114655 38.30196786253396 47.02335564372898 H 0.0 **** 0.06
23196 C 107.63871612444471 26.18410576928696 20.459477400429506 C 0.0 **** -0.24
23197 H 107.41088037264927 25.96612928131728 21.50240298507265 H 0.0 **** 0.06
23198 H 106.72184101092691 26.459034478961485 19.937489880642374 H 0.0 **** 0.06
23199 H 108.07393624816054 25.301530591525676 19.989913510809657 H 0.0 **** 0.06
23200 H 108.34820686604213 27.009728725343507 20.408103225193486 H 0.0 **** 0.06
23201 C 81.6895437845231 41.73177882243556 66.20076571578251 C 0.0 **** -0.24
23202 H 82.51318289615574 41.06139005680296 65.95562042652931 H 0.0 **** 0.06
23203 H 81.18944527101416 42.04340820978902 65.28335340431295 H 0.0 **** 0.06
23204 H 82.07659882417761 42.608528432951374 66.71937172135569 H 0.0 **** 0.06
23205 H 80.97894814674504 41.21378859019919 66.84471731093204 H 0.0 **** 0.06
23206 C 89.68130692115446 100.7673583825314 69.54997954786288 C 0.0 **** -0.24
23207 H 90.34733619232568 101.40944258399949 68.97340205411706 H 0.0 **** 0.06
23208 H 88.95516418125106 101.38119485366158 70.08299663907673 H 0.0 **** 0.06
23209 H 90.26480307642075 100.189306477552 70.26668935578948 H 0.0 **** 0.06
23210 H 89.15783672193274 100.08853656452216 68.87654015952637 H 0.0 **** 0.06
23211 C 9.93927984426017 117.88757006659152 17.055784022721184 C 0.0 **** -0.24
23212 H 9.07708745105117 117.6035584863829 16.451424469080052 H 0.0 **** 0.06
23213 H 10.855032938000647 117.61835342830642 16.528798807404314 H 0.0 **** 0.06
23214 H 9.901793124903861 117.36345823325956 18.01035785254743 H 0.0 **** 0.06
23215 H 9.922486384088018 118.96321186699822 17.22998614338337 H 0.0 **** 0.06
23216 C 22.448037821100854 79.22985458868848 116.27474860875796 C 0.0 **** -0.24
23217 H 21.791841175112268 79.22811180632567 117.14452822368924 H 0.0 **** 0.06
23218 H 21.918515315552384 79.65178507549064 115.42017601367331 H 0.0 **** 0.06
23219 H 22.750454103637082 78.20689827884695 116.04676049007446 H 0.0 **** 0.06
23220 H 23.332219480225945 79.83124949638062 116.48694588965282 H 0.0 **** 0.06
23221 C 114.90264275846725 48.629129553018515 73.17793455083276 C 0.0 **** -0.24
23222 H 114.9525415563909 48.24868416641242 74.19874657480844 H 0.0 **** 0.06
23223 H 114.3927998493327 47.903006853332755 72.54487315375329 H 0.0 **** 0.06
23224 H 115.91269211572899 48.79270046219571 72.80285117879475 H 0.0 **** 0.06
23225 H 114.35348757067335 49.57030938546771 73.16745707456846 H 0.0 **** 0.06
23226 C 109.06045627109958 54.75887853442771 8.495473809812893 C 0.0 **** -0.24
23227 H 108.63308428360901 53.83235942799041 8.1126210795195 H 0.0 **** 0.06
23228 H 108.35349347600825 55.57484884115735 8.34190353224028 H 0.0 **** 0.06
23229 H 109.98732979037382 54.97679352355971 7.965868118619426 H 0.0 **** 0.06
23230 H 109.26613939580594 54.65129711523258 9.559831514856057 H 0.0 **** 0.06
23231 C 78.5147156695536 19.911005350684974 15.90151981386245 C 0.0 **** -0.24
23232 H 79.28351275113579 20.362818651651764 15.275352543215035 H 0.0 **** 0.06
23233 H 77.81027597442227 20.679048973483333 16.22250808959953 H 0.0 **** 0.06
23234 H 78.97954130748928 19.455228019107977 16.776378039401948 H 0.0 **** 0.06
23235 H 77.98553264516721 19.146925758496565 15.331840583233486 H 0.0 **** 0.06
23236 C 26.777131228004187 122.94476304385722 53.06952483395399 C 0.0 **** -0.24
23237 H 27.644449514051203 123.09922945942739 52.426917741912064 H 0.0 **** 0.06
23238 H 27.09768596839718 122.49517660264814 54.00950696994376 H 0.0 **** 0.06
23239 H 26.069999477639925 122.28209168453131 52.57062498181341 H 0.0 **** 0.06
23240 H 26.29864991468755 123.90305162009017 53.26942305118396 H 0.0 **** 0.06
23241 C 55.857497152314494 46.91271574832728 4.248807603418328 C 0.0 **** -0.24
23242 H 55.405401143839526 47.81032990051754 4.669895127815266 H 0.0 **** 0.06
23243 H 56.48831090660772 47.186956204670054 3.4018341593198613 H 0.0 **** 0.06
23244 H 55.07365647896302 46.23363976419229 3.913954962981677 H 0.0 **** 0.06
23245 H 56.46484762900889 46.420951182641346 5.009446006657754 H 0.0 **** 0.06
23246 C 19.180373344478653 103.24595035341451 40.84064539349227 C 0.0 **** -0.24
23247 H 19.38022455020007 102.46637855425456 40.10459302808451 H 0.0 **** 0.06
23248 H 19.15221859863192 104.21541989207128 40.34338909981841 H 0.0 **** 0.06
23249 H 19.969371117995024 103.24514885769332 41.59248750525376 H 0.0 **** 0.06
23250 H 18.220388677045378 103.05490126200073 41.320814549585236 H 0.0 **** 0.06
23251 C 7.683995105327995 40.959957312926576 10.792495725948925 C 0.0 **** -0.24
23252 H 7.579086703481607 40.33809860539267 11.681911105930482 H 0.0 **** 0.06
23253 H 8.739405269818832 41.05431705566579 10.537479420640892 H 0.0 **** 0.06
23254 H 7.266475144603447 41.947244851629875 10.988783977851654 H 0.0 **** 0.06
23255 H 7.149422147496097 40.497631406028916 9.961633337155092 H 0.0 **** 0.06
23256 C 60.134218887735955 27.566846589568286 122.54756495358626 C 0.0 **** -0.24
23257 H 60.75704167647487 26.740771766881664 122.89194542819357 H 0.0 **** 0.06
23258 H 59.572403848989524 27.97302953995097 123.3895044134869 H 0.0 **** 0.06
23259 H 59.440885379111734 27.206262874146546 121.78789810409367 H 0.0 **** 0.06
23260 H 60.76668959804945 28.345920500968305 122.12264811757548 H 0.0 **** 0.06
23261 C 19.467129468935934 73.75856336252903 44.612609237603856 C 0.0 **** -0.24
23262 H 19.640231093367138 73.92075924988954 43.54807830633537 H 0.0 **** 0.06
23263 H 18.92873849834475 74.61064273830723 45.027195284450585 H 0.0 **** 0.06
23264 H 20.4235511301124 73.6493157966451 45.12278589432311 H 0.0 **** 0.06
23265 H 18.876251852414594 72.85299243091055 44.75022333132222 H 0.0 **** 0.06
23266 C 74.71955293808571 40.784998787352635 38.231447647804686 C 0.0 **** -0.24
23267 H 74.42422528110325 40.78567647204798 37.181788240587 H 0.0 **** 0.06
23268 H 73.8306565522256 40.71095182057849 38.85912435532609 H 0.0 **** 0.06
23269 H 75.25136528881308 41.709244106122696 38.45934887454891 H 0.0 **** 0.06
23270 H 75.37216436704091 39.93317132098865 38.42351537924148 H 0.0 **** 0.06
23271 C 80.26770078475641 13.179349710312238 54.19201965991654 C 0.0 **** -0.24
23272 H 80.52331750055797 14.139439172549487 53.744005138398876 H 0.0 **** 0.06
23273 H 81.15355916827579 12.54371455781336 54.219326444448384 H 0.0 **** 0.06
23274 H 79.49214424496475 12.695898828796544 53.59706330529697 H 0.0 **** 0.06
23275 H 79.90123971177383 13.337352600759289 55.206034966799294 H 0.0 **** 0.06
23276 C 29.817325133908327 121.68883862082743 29.162800484606322 C 0.0 **** -0.24
23277 H 30.568536462429904 121.79105380835477 28.37929724183735 H 0.0 **** 0.06
23278 H 29.165806633435295 120.84545968944107 28.93338090276299 H 0.0 **** 0.06
23279 H 29.225166882835595 122.60262226642251 29.21838641874797 H 0.0 **** 0.06
23280 H 30.311465164377182 121.51743297695222 30.118825281522078 H 0.0 **** 0.06
23281 C 13.912650822515047 61.747311250771986 121.63582701049802 C 0.0 **** -0.24
23282 H 13.322211025520346 62.33030452763808 122.34234620281671 H 0.0 **** 0.06
23283 H 14.116110058403194 60.763165093758346 122.05930009178218 H 0.0 **** 0.06
23284 H 14.853766618153742 62.26029377416131 121.43871365331371 H 0.0 **** 0.06
23285 H 13.358103158915469 61.63454175964728 120.70392107684839 H 0.0 **** 0.06
23286 C 75.69257874499175 25.812915429233385 48.68387246975615 C 0.0 **** -0.24
23287 H 75.78146132559033 26.23363652705899 47.68229653676951 H 0.0 **** 0.06
23288 H 75.34379961131032 24.78240997018105 48.615371875621705 H 0.0 **** 0.06
23289 H 74.98054402197346 26.40065866568608 49.2627948485172 H 0.0 **** 0.06
23290 H 76.66655957685117 25.834550691509207 49.17374797877348 H 0.0 **** 0.06
23291 C 91.14306533357703 15.609038489095354 24.231595494677123 C 0.0 **** -0.24
23292 H 91.6361117755186 15.68082039831259 25.200749888347545 H 0.0 **** 0.06
23293 H 91.89398491132508 15.628005444372889 23.440930066975646 H 0.0 **** 0.06
23294 H 90.46235618633847 16.450265178800976 24.10705097812164 H 0.0 **** 0.06
23295 H 90.5818447183619 14.67635282304721 24.178242370683712 H 0.0 **** 0.06
23296 C 93.18477134452414 74.53860182851776 8.601808438981394 C 0.0 **** -0.24
23297 H 92.41024459678873 75.28787283854945 8.43741869037953 H 0.0 **** 0.06
23298 H 93.14162621504539 73.79281621810443 7.808332538569431 H 0.0 **** 0.06
23299 H 93.0230974178378 74.05461519745432 9.564981937628659 H 0.0 **** 0.06
23300 H 94.16194997953237 75.02021207000894 8.596228932484067 H 0.0 **** 0.06
23301 C 83.37703271854166 80.20484704380026 59.35304953083673 C 0.0 **** -0.24
23302 H 82.75529617424688 79.30925485509808 59.34619099400882 H 0.0 **** 0.06
23303 H 82.73918763277996 81.08881441547767 59.35283256581883 H 0.0 **** 0.06
23304 H 84.01149087967396 80.21284334243143 58.466995025668524 H 0.0 **** 0.06
23305 H 84.00063787281451 80.20554619709684 60.246517370070165 H 0.0 **** 0.06
23306 C 61.83378538692739 30.32163528404692 12.38321503920369 C 0.0 **** -0.24
23307 H 62.22846733784871 29.378340565479164 12.00496384209815 H 0.0 **** 0.06
23308 H 61.70018982713154 31.017237906170436 11.554300711007343 H 0.0 **** 0.06
23309 H 62.53260384586116 30.744076031691094 13.104794036857712 H 0.0 **** 0.06
23310 H 60.873585340949916 30.144722420255647 12.868322702206612 H 0.0 **** 0.06
23311 C 40.09632014388288 13.893882695301357 62.83694970450472 C 0.0 **** -0.24
23312 H 39.48065034884851 14.776987855638367 63.00458212541989 H 0.0 **** 0.06
23313 H 40.90204933995304 14.139251607678972 62.144526201945084 H 0.0 **** 0.06
23314 H 39.48315792083562 13.098633592401825 62.414250516038706 H 0.0 **** 0.06
23315 H 40.52023744981011 13.560771010794241 63.78500904052834 H 0.0 **** 0.06
23316 C 110.55904772999986 120.51366924327304 84.43590828638094 C 0.0 **** -0.24
23317 H 110.30673036962662 121.20170933071643 85.24300401448508 H 0.0 **** 0.06
23318 H 109.7177834082396 120.4394228585346 83.7452747833475 H 0.0 **** 0.06
23319 H 110.77528848219987 119.52913537079802 84.85189837326294 H 0.0 **** 0.06
23320 H 111.4346876508423 120.88295915754341 83.90339601464012 H 0.0 **** 0.06
23321 C 47.10144161553893 7.462929421282205 93.6688062438465 C 0.0 **** -0.24
23322 H 46.26605453008611 6.9553996183588005 94.15155218642829 H 0.0 **** 0.06
23323 H 47.31622501205618 6.981344730691077 92.71486862389054 H 0.0 **** 0.06
23324 H 47.98028381027402 7.406335038513216 94.31166798565847 H 0.0 **** 0.06
23325 H 46.841717836096166 8.507033168020854 93.49942048621566 H 0.0 **** 0.06
23326 C 85.9536855421176 84.99756925398027 23.880639825722596 C 0.0 **** -0.24
23327 H 85.94731212936873 84.15392883576612 24.570299084884596 H 0.0 **** 0.06
23328 H 85.06933068277905 85.61099417936704 24.050121378898325 H 0.0 **** 0.06
23329 H 85.94937582851989 84.62801502479995 22.8558155782697 H 0.0 **** 0.06
23330 H 86.84963322978842 85.59566717489774 24.047497054486712 H 0.0 **** 0.06
23331 C 16.676222021991983 86.86273398784198 14.03431665607522 C 0.0 **** -0.24
23332 H 17.130825482605946 87.41826619525128 13.213746491666594 H 0.0 **** 0.06
23333 H 15.59875481720185 86.80524985335978 13.881628495023193 H 0.0 **** 0.06
23334 H 16.884249144849075 87.37093391694683 14.975184969993279 H 0.0 **** 0.06
23335 H 17.09328238721731 85.85538356580511 14.063906599064786 H 0.0 **** 0.06
23336 C 27.11463941904981 54.156543684740726 25.177334608914805 C 0.0 **** -0.24
23337 H 27.477092515778452 53.29178739366192 24.622824068613994 H 0.0 **** 0.06
23338 H 27.150767945888276 53.94515150307781 26.2456495149749 H 0.0 **** 0.06
23339 H 26.086607055929903 54.37062611252853 24.88270270985015 H 0.0 **** 0.06
23340 H 27.742845436529535 55.01982332841226 24.955003259154694 H 0.0 **** 0.06
23341 C 16.416993417963297 93.6798603013977 35.95572610513909 C 0.0 **** -0.24
23342 H 16.726986982571702 93.81828707445432 34.92015877192512 H 0.0 **** 0.06
23343 H 16.672727408563233 92.67002776912892 36.27843829015683 H 0.0 **** 0.06
23344 H 15.339510370726316 93.8245638269187 36.03433831123925 H 0.0 **** 0.06
23345 H 16.928256836012565 94.40519512689997 36.587344444282735 H 0.0 **** 0.06
23346 C 90.16665221558176 56.87302621471815 108.01358705454925 C 0.0 **** -0.24
23347 H 89.65868326567812 57.55349102398395 108.6972886841724 H 0.0 **** 0.06
23348 H 90.78004869083418 56.17561656374676 108.58422026272288 H 0.0 **** 0.06
23349 H 90.79951913468793 57.44499385765448 107.33608199260436 H 0.0 **** 0.06
23350 H 89.42538244657874 56.317836883714676 107.43710396916612 H 0.0 **** 0.06
23351 C 78.39105232973296 91.43512051049701 29.23530022812777 C 0.0 **** -0.24
23352 H 77.5475614240861 92.12624743625433 29.226331881559332 H 0.0 **** 0.06
23353 H 78.42217907996081 90.88796577374373 28.294071017085002 H 0.0 **** 0.06
23354 H 78.27481808466713 90.73214200707577 30.06113230311331 H 0.0 **** 0.06
23355 H 79.31789854789473 91.99490955318339 29.362877866461673 H 0.0 **** 0.06
23356 C 24.158357676276296 18.56413386500597 121.07056841534414 C 0.0 **** -0.24
23357 H 24.098656542612446 18.98072317843733 122.07540758480312 H 0.0 **** 0.06
23358 H 24.957917504045497 19.059208938569725 120.51856704401432 H 0.0 **** 0.06
23359 H 23.209689954632495 18.72082122868005 120.55578651283801 H 0.0 **** 0.06
23360 H 24.3662790874684 17.495861268086884 121.13205872953925 H 0.0 **** 0.06
23361 C 77.21458854895656 66.51558831897447 106.6850751340122 C 0.0 **** -0.24
23362 H 76.89141888024722 67.32491426072342 106.02951762219189 H 0.0 **** 0.06
23363 H 78.27909676441783 66.6227377311237 106.89583808654723 H 0.0 **** 0.06
23364 H 77.03478723538512 65.55814770532629 106.1961081960401 H 0.0 **** 0.06
23365 H 76.65322203862542 66.5587903045976 107.61785264304838 H 0.0 **** 0.06
23366 C 40.8591316623334 66.69677483378379 30.453258218148747 C 0.0 **** -0.24
23367 H 40.862263539175416 66.90429451463524 31.524040905459003 H 0.0 **** 0.06
23368 H 40.381969994066424 67.52247584534545 29.9252276333129 H 0.0 **** 0.06
23369 H 40.30818388913616 65.77585288909887 30.26313716949197 H 0.0 **** 0.06
23370 H 41.88526617536101 66.58466693867516 30.102777831066646 H 0.0 **** 0.06
23371 C 100.5447614285763 14.133903533220316 104.81333107408477 C 0.0 **** -0.24
23372 H 99.78921618230879 13.668701200888783 105.44649841463001 H 0.0 **** 0.06
23373 H 101.535043881653 13.80483697006581 105.12875711166868 H 0.0 **** 0.06
23374 H 100.47595807410272 15.217876652965721 104.90272380748758 H 0.0 **** 0.06
23375 H 100.37824604732288 13.843455584288634 103.77639796064273 H 0.0 **** 0.06
23376 C 120.82409194843075 96.48193830348414 20.15652416990352 C 0.0 **** -0.24
23377 H 121.45612576219042 96.68321340367233 19.291432086174524 H 0.0 **** 0.06
23378 H 119.87730552988401 97.00971572153381 20.045730962236775 H 0.0 **** 0.06
23379 H 121.3276441900849 96.82483262703826 21.06047568344539 H 0.0 **** 0.06
23380 H 120.63809221661603 95.41017780944948 20.22951921531262 H 0.0 **** 0.06
23381 C 12.15908846636681 32.93594761549083 56.10790910034275 C 0.0 **** -0.24
23382 H 13.109988305410695 32.742133077551074 55.61239413029111 H 0.0 **** 0.06
23383 H 11.343164767107965 32.57012001563334 55.48303431722006 H 0.0 **** 0.06
23384 H 12.04377866713736 34.00858258095278 56.264116000499996 H 0.0 **** 0.06
23385 H 12.139027670050012 32.423690959431546 57.06921047133966 H 0.0 **** 0.06
23386 C 72.13560130844007 21.780683034782243 59.48017626713789 C 0.0 **** -0.24
23387 H 72.38377465836982 21.304997617744704 58.531156719899684 H 0.0 **** 0.06
23388 H 72.96519579997585 21.656498768184264 60.17594917235982 H 0.0 **** 0.06
23389 H 71.23965404029269 21.319157719083137 59.89495158544625 H 0.0 **** 0.06
23390 H 71.95488561857258 22.843847914695033 59.31606934625654 H 0.0 **** 0.06
23391 C 10.071691310294568 79.99046721970225 32.976379812017065 C 0.0 **** -0.24
23392 H 10.301548848098378 79.6422679762065 33.982255741821675 H 0.0 **** 0.06
23393 H 10.999117427919145 80.21318671135536 32.448127441035936 H 0.0 **** 0.06
23394 H 9.461279486747117 80.8919562604165 33.03410891942114 H 0.0 **** 0.06
23395 H 9.524303967644926 79.2147938472176 32.43940801957481 H 0.0 **** 0.06
23396 C 63.15981835222118 117.54273017920897 38.74698915572796 C 0.0 **** -0.24
23397 H 64.11104524973736 117.95556014338969 38.41206605802333 H 0.0 **** 0.06
23398 H 62.88223264934189 117.99738210375897 39.6982317852036 H 0.0 **** 0.06
23399 H 63.25555433423489 116.46501122188204 38.87316797872501 H 0.0 **** 0.06
23400 H 62.39061750680193 117.75519264548107 38.00462034091535 H 0.0 **** 0.06
23401 C 42.72853309213402 90.28166184288256 114.17868060031816 C 0.0 **** -0.24
23402 H 43.447248724562996 89.56394859381953 114.57568601830252 H 0.0 **** 0.06
23403 H 42.01382747905734 90.54768461900852 114.9583449822644 H 0.0 **** 0.06
23404 H 42.199559604585005 89.83788843859745 113.33562965941837 H 0.0 **** 0.06
23405 H 43.25591435969504 91.17635293412599 113.84694789724676 H 0.0 **** 0.06
23406 C 109.78468333333672 78.36109731999076 18.602644803668596 C 0.0 **** -0.24
23407 H 110.8584099837237 78.33093896642576 18.788169107212426 H 0.0 **** 0.06
23408 H 109.30993182104055 79.02590961326817 19.324187815031465 H 0.0 **** 0.06
23409 H 109.37119087825945 77.35794329369374 18.70360847643994 H 0.0 **** 0.06
23410 H 109.60099310681738 78.7293111078463 17.592968989405676 H 0.0 **** 0.06
23411 C 38.6899250249125 60.184134576855314 2.43691440914958 C 0.0 **** -0.24
23412 H 39.46152628794205 59.590470885271685 1.9472281910607592 H 0.0 **** 0.06
23413 H 39.12372077517118 60.71382315029197 3.285120147526925 H 0.0 **** 0.06
23414 H 37.8929690611572 59.52823346066029 2.786776675914524 H 0.0 **** 0.06
23415 H 38.28199575200563 60.90458495159646 1.7278934811801037 H 0.0 **** 0.06
23416 C 85.64361799386148 3.9096388903082406 73.63390998207781 C 0.0 **** -0.24
23417 H 85.0896119947703 4.670707857806079 73.08489080369256 H 0.0 **** 0.06
23418 H 86.36047029378007 4.389917006690993 74.29972933075624 H 0.0 **** 0.06
23419 H 86.17409073110497 3.268326463275656 72.93015523426789 H 0.0 **** 0.06
23420 H 84.94949723917874 3.3075216339813593 74.22100703065527 H 0.0 **** 0.06
23421 C 62.335527535112135 86.2423539109019 84.50254310524164 C 0.0 **** -0.24
23422 H 62.17778090534256 85.46966123850655 83.74979164087492 H 0.0 **** 0.06
23423 H 63.37610678730766 86.56631827548051 84.478076166655 H 0.0 **** 0.06
23424 H 62.102487750607565 85.83960891264275 85.48905398644715 H 0.0 **** 0.06
23425 H 61.68465578704044 87.09103357876762 84.29342957126258 H 0.0 **** 0.06
23426 C 99.81848560684286 105.31210759107059 123.08628153684242 C 0.0 **** -0.24
23427 H 99.15230966896817 104.47593627298697 122.86949603513077 H 0.0 **** 0.06
23428 H 99.85266492529419 105.9803285831375 122.22550676095281 H 0.0 **** 0.06
23429 H 100.81976381787977 104.93458800521336 123.29369323675795 H 0.0 **** 0.06
23430 H 99.44689497261919 105.85531730300282 123.9545431674751 H 0.0 **** 0.06
23431 C 65.8952588649799 8.428303771727727 80.8607011740668 C 0.0 **** -0.24
23432 H 65.08173444876132 7.878274774636608 80.38770980823327 H 0.0 **** 0.06
23433 H 66.74457590459474 7.760974486726269 81.01321673588055 H 0.0 **** 0.06
23434 H 65.5603954146124 8.816345936935392 81.82224805838231 H 0.0 **** 0.06
23435 H 66.19459198953041 9.256483576407092 80.2188300301498 H 0.0 **** 0.06
23436 C 122.22177835175583 114.39842153971705 90.79236938870896 C 0.0 **** -0.24
23437 H 123.2952053682233 114.48853599401792 90.9546113583117 H 0.0 **** 0.06
23438 H 122.01148959189538 114.44568151379872 89.72322958722208 H 0.0 **** 0.06
23439 H 121.70792014151431 115.21581593878648 91.29990158746057 H 0.0 **** 0.06
23440 H 121.87219593397978 113.44656288863735 91.19053502965436 H 0.0 **** 0.06
23441 C 20.432454139536787 119.89366018188082 35.90461174448359 C 0.0 **** -0.24
23442 H 19.5546076143346 120.34231675684697 36.369956220950286 H 0.0 **** 0.06
23443 H 20.71594854689681 120.47653188564965 35.028022771691184 H 0.0 **** 0.06
23444 H 20.201022366984944 118.87288572077676 35.603534613743165 H 0.0 **** 0.06
23445 H 21.256617596642684 119.88554189646129 36.61812867727784 H 0.0 **** 0.06
23446 C 108.68199621351702 11.973794126453129 52.988854542262516 C 0.0 **** -0.24
23447 H 108.61783641487962 11.146177524619759 52.28179935671238 H 0.0 **** 0.06
23448 H 108.71825867798844 11.582272271274576 54.00520898323094 H 0.0 **** 0.06
23449 H 107.80817163330173 12.615034658190325 52.87647192678497 H 0.0 **** 0.06
23450 H 109.58513692072248 12.551202860018918 52.78898014840166 H 0.0 **** 0.06
23451 C 79.39361977464874 80.70808940347592 60.836037168548145 C 0.0 **** -0.24
23452 H 79.60311793442668 81.36876085083017 61.677367943411355 H 0.0 **** 0.06
23453 H 79.63975861256715 81.21674502898006 59.90411935178982 H 0.0 **** 0.06
23454 H 78.33624353463198 80.44287156286188 60.83734345201354 H 0.0 **** 0.06
23455 H 79.9945989464924 79.80309284659498 60.926114830426954 H 0.0 **** 0.06
23456 C 36.26564551266966 63.55540468112824 109.94787137025588 C 0.0 **** -0.24
23457 H 35.54190515347347 63.76720360933649 110.73514885181646 H 0.0 **** 0.06
23458 H 35.76183200630152 63.559113158644806 108.98132292208464 H 0.0 **** 0.06
23459 H 36.712881665081866 62.57599836656695 110.12038470631552 H 0.0 **** 0.06
23460 H 37.04460101637717 64.31659730228901 109.95597843858013 H 0.0 **** 0.06
23461 C 21.256739336800194 64.66818983247907 40.42373512303163 C 0.0 **** -0.24
23462 H 21.471510738021067 64.22420401445464 39.45059861639254 H 0.0 **** 0.06
23463 H 20.51277763310219 64.06264911366803 40.94200258641723 H 0.0 **** 0.06
23464 H 20.8711832324812 65.67756078080325 40.28389797105507 H 0.0 **** 0.06
23465 H 22.17071633075591 64.70622675414496 41.01498875888012 H 0.0 **** 0.06
23466 C 17.458783610288137 103.80508329844912 16.602785673604046 C 0.0 **** -0.24
23467 H 16.962276239797518 102.85160712447212 16.783695424130542 H 0.0 **** 0.06
23468 H 18.435312614583182 103.62580384396911 16.152881582355292 H 0.0 **** 0.06
23469 H 17.585083626696644 104.33342756933402 17.54793294278744 H 0.0 **** 0.06
23470 H 16.85174454295762 104.40779213906129 15.927398880363569 H 0.0 **** 0.06
23471 C 79.05652982744144 54.34833770650644 77.79821109426652 C 0.0 **** -0.24
23472 H 78.42823445027605 53.81145400356975 77.08740203167454 H 0.0 **** 0.06
23473 H 78.43826968403279 54.74011878180612 78.60619792387564 H 0.0 **** 0.06
23474 H 79.55619175260348 55.17350314571415 77.29064171963387 H 0.0 **** 0.06
23475 H 79.80342342285331 53.66827489493562 78.2086027018822 H 0.0 **** 0.06
23476 C 120.55235331029257 76.83719991084371 13.925213583568222 C 0.0 **** -0.24
23477 H 120.28310356922273 77.60511263248992 14.650301390044888 H 0.0 **** 0.06
23478 H 120.83001127250833 77.30959959861951 12.982537955129999 H 0.0 **** 0.06
23479 H 119.70173821185155 76.175463941739 13.764455614369808 H 0.0 **** 0.06
23480 H 121.39572462120296 76.25941890261606 14.30366656331529 H 0.0 **** 0.06
23481 C 46.842143180153414 115.97589847627421 86.88831231481413 C 0.0 **** -0.24
23482 H 46.728048107211364 115.46161635222657 87.8431211832216 H 0.0 **** 0.06
23483 H 47.46987676373883 115.37779705989925 86.2265434449034 H 0.0 **** 0.06
23484 H 47.30849041472184 116.94696093024166 87.05172168729035 H 0.0 **** 0.06
23485 H 45.86208244250353 116.11422042407625 86.43185783626174 H 0.0 **** 0.06
23486 C 99.48654353711473 26.17028333494413 80.65584129442595 C 0.0 **** -0.24
23487 H 100.14684727765788 26.905746806274266 81.11478587642476 H 0.0 **** 0.06
23488 H 98.93324051309585 26.63785410110235 79.84041739604503 H 0.0 **** 0.06
23489 H 98.78585076048964 25.794736314107105 81.40169368309066 H 0.0 **** 0.06
23490 H 100.07915128887842 25.34335892984695 80.26575574349033 H 0.0 **** 0.06
23491 C 23.146429574573006 97.26805796226472 30.171096305319708 C 0.0 **** -0.24
23492 H 22.563148265427174 98.07956393841977 29.735859959398 H 0.0 **** 0.06
23493 H 22.832120439289156 96.32021584196559 29.734099975067153 H 0.0 **** 0.06
23494 H 22.985557370109007 97.24327471220028 31.24911794676231 H 0.0 **** 0.06
23495 H 24.204655962322192 97.4304406289802 29.965897620062975 H 0.0 **** 0.06
23496 C 73.72992195352893 80.2441054743473 79.13568986518163 C 0.0 **** -0.24
23497 H 74.40083325682929 80.90826334500045 79.68022731481241 H 0.0 **** 0.06
23498 H 73.91285485179205 79.21349782637549 79.44091629598049 H 0.0 **** 0.06
23499 H 73.91102547456362 80.3434673066642 78.06549434941465 H 0.0 **** 0.06
23500 H 72.69666577813399 80.51105020219276 79.3564654740317 H 0.0 **** 0.06
23501 C 113.21699031816004 76.74736390399791 78.18554886554833 C 0.0 **** -0.24
23502 H 114.07734088761475 77.40278038813076 78.05097983029552 H 0.0 **** 0.06
23503 H 113.45692411500949 75.75134621793381 77.81259540729741 H 0.0 **** 0.06
23504 H 112.36585954963053 77.14717722610145 77.63471367469808 H 0.0 **** 0.06
23505 H 112.96763293553158 76.68799675453997 79.24487324079277 H 0.0 **** 0.06
23506 C 85.20481698530335 67.32965828656745 108.01109959138397 C 0.0 **** -0.24
23507 H 85.92293442081757 66.70074283159886 107.48535594544742 H 0.0 **** 0.06
23508 H 85.73539341716588 68.11860114321223 108.54520031702283 H 0.0 **** 0.06
23509 H 84.64274262465585 66.72314780755619 108.72230296520299 H 0.0 **** 0.06
23510 H 84.51753202382457 67.77585480171672 107.29222841698856 H 0.0 **** 0.06
23511 C 110.55329617667938 103.61724420301113 103.83456881262967 C 0.0 **** -0.24
23512 H 110.02185043110114 104.39227226399078 104.38701939151701 H 0.0 **** 0.06
23513 H 110.54754636494404 102.69122153728222 104.41004574757622 H 0.0 **** 0.06
23514 H 111.5825123630503 103.9328719895783 103.66455165588383 H 0.0 **** 0.06
23515 H 110.06032786611554 103.4523856347194 102.87643228232619 H 0.0 **** 0.06
23516 C 79.189339967856 105.8944053454377 12.228902805081916 C 0.0 **** -0.24
23517 H 79.35728059962683 104.85332872429979 12.506735814200734 H 0.0 **** 0.06
23518 H 78.5675944441321 105.93578976299231 11.334421080540157 H 0.0 **** 0.06
23519 H 80.14704147462368 106.37606778618952 12.029406259378021 H 0.0 **** 0.06
23520 H 78.6863032458208 106.4114089119427 13.046147004959966 H 0.0 **** 0.06
23521 C 0.0417106503163609 107.08498152629863 84.9427223506237 C 0.0 **** -0.24
23522 H -0.4554097367400374 107.2733730587791 85.89381309792329 H 0.0 **** 0.06
23523 H -0.4905384415956746 106.30112306286088 84.40352058895465 H 0.0 **** 0.06
23524 H 1.067890749503988 106.76806411168786 85.12652229211261 H 0.0 **** 0.06
23525 H 0.04436776645127338 107.99857425009026 84.34754000491692 H 0.0 **** 0.06
23526 C 108.19103468094059 97.92639779600164 89.4213524380713 C 0.0 **** -0.24
23527 H 107.88255513959272 98.86981925361493 88.96984929940038 H 0.0 **** 0.06
23528 H 109.2770259679244 97.90783688553886 89.51621632697788 H 0.0 **** 0.06
23529 H 107.86672713090375 97.0985835751732 88.7904792696512 H 0.0 **** 0.06
23530 H 107.73797493502643 97.83076787076992 90.40787839636766 H 0.0 **** 0.06
23531 C 58.46142265871674 16.593457406919413 20.540585674086003 C 0.0 **** -0.24
23532 H 59.20908578244814 16.098901550674952 19.920563851307804 H 0.0 **** 0.06
23533 H 57.66557792648922 15.888771297436676 20.780240254514467 H 0.0 **** 0.06
23534 H 58.04555761575716 17.442831876030198 19.999006536611887 H 0.0 **** 0.06
23535 H 58.92813511699774 16.94263628323145 21.46097647932629 H 0.0 **** 0.06
23536 C 73.16636747344171 122.80162412167675 95.438716132177 C 0.0 **** -0.24
23537 H 73.80039219163808 123.58235992065815 95.86116385391583 H 0.0 **** 0.06
23538 H 73.38105207555634 122.6972300572519 94.37535302958551 H 0.0 **** 0.06
23539 H 72.11995333606944 123.07237159536473 95.57487742350372 H 0.0 **** 0.06
23540 H 73.36690887811244 121.8576075442265 95.94534474479772 H 0.0 **** 0.06
23541 C 48.81107585364617 41.840047840372755 29.482877122757962 C 0.0 **** -0.24
23542 H 49.1963747431725 42.045018628698934 28.484015543975453 H 0.0 **** 0.06
23543 H 49.55274585163198 41.27513968184797 30.049532406937338 H 0.0 **** 0.06
23544 H 47.89252261281166 41.25789542067544 29.405758790741253 H 0.0 **** 0.06
23545 H 48.60324929537478 42.78096350505187 29.9927256883746 H 0.0 **** 0.06
23546 C 25.045868154851917 15.807266930419814 39.15623438403796 C 0.0 **** -0.24
23547 H 24.172603595919227 16.439605308429748 39.312717066742294 H 0.0 **** 0.06
23548 H 24.724290244953238 14.778571626431358 38.98885932923656 H 0.0 **** 0.06
23549 H 25.686351762731768 15.848893533344665 40.03789970856991 H 0.0 **** 0.06
23550 H 25.59980986433196 16.161422196406306 38.28668429760836 H 0.0 **** 0.06
23551 C 7.432889418219077 90.23978231846365 4.491142101278669 C 0.0 **** -0.24
23552 H 7.352006044008306 91.27680889314793 4.816944911034824 H 0.0 **** 0.06
23553 H 7.365621861181296 89.58101179593918 5.356535158963126 H 0.0 **** 0.06
23554 H 8.39050149925231 90.0901154400988 3.9919420785515456 H 0.0 **** 0.06
23555 H 6.622814464662895 90.01343513563552 3.7970021349098886 H 0.0 **** 0.06
23556 C 83.88164378848838 32.010754912701515 29.536805650132834 C 0.0 **** -0.24
23557 H 83.65108686339062 31.78931113536384 28.49430916928847 H 0.0 **** 0.06
23558 H 83.49363603176661 32.997734793271384 29.79212211590132 H 0.0 **** 0.06
23559 H 84.96160222522327 31.994675082986248 29.68077744549754 H 0.0 **** 0.06
23560 H 83.4173720419575 31.260373662136338 30.178048601711993 H 0.0 **** 0.06
23561 C 110.15921779571576 12.019770143393586 1.341978550676096 C 0.0 **** -0.24
23562 H 110.52897603081223 12.653514917103642 0.5357526952773473 H 0.0 **** 0.06
23563 H 110.13051459510513 12.592642370926125 2.269575616288705 H 0.0 **** 0.06
23564 H 110.82340016957522 11.163837247523396 1.4639432489700521 H 0.0 **** 0.06
23565 H 109.15628905812997 11.670410936332953 1.0995992574395537 H 0.0 **** 0.06
23566 C 92.25859581461208 5.572164277565008 43.065695359318 C 0.0 **** -0.24
23567 H 91.87654320897781 5.106579512733589 42.15742760259815 H 0.0 **** 0.06
23568 H 92.05045222570715 4.926249154017796 43.91971801839014 H 0.0 **** 0.06
23569 H 91.77282779377862 6.5363985257788215 43.21243119627093 H 0.0 **** 0.06
23570 H 93.33502658245152 5.717822346927392 42.97429927037075 H 0.0 **** 0.06
23571 C 119.69711106195888 7.912546934153223 53.652201232396905 C 0.0 **** -0.24
23572 H 119.81971187462835 8.712838795918703 54.38255917729009 H 0.0 **** 0.06
23573 H 120.64880237801418 7.73105278828719 53.151364636657775 H 0.0 **** 0.06
23574 H 118.94930079444788 8.20446497567993 52.91571206011646 H 0.0 **** 0.06
23575 H 119.37311870401362 7.004618569036332 54.15898583892208 H 0.0 **** 0.06
23576 C 79.6211999928362 45.98759668737362 44.57416941186462 C 0.0 **** -0.24
23577 H 79.64596743795053 45.37741114779165 45.4774179520217 H 0.0 **** 0.06
23578 H 80.13187487437257 45.46171956070417 43.76628438132589 H 0.0 **** 0.06
23579 H 80.1213117978312 46.93705585248351 44.76360845096871 H 0.0 **** 0.06
23580 H 78.58528392848632 46.1725292044792 44.28908941415445 H 0.0 **** 0.06
23581 C 43.40161184797006 40.67693725848835 63.90701410570591 C 0.0 **** -0.24
23582 H 43.05686402386118 41.44090416041615 63.209844656323185 H 0.0 **** 0.06
23583 H 42.56368568815145 40.33446398270655 64.51485088847863 H 0.0 **** 0.06
23584 H 44.173273858378025 41.09621242221448 64.5527104661403 H 0.0 **** 0.06
23585 H 43.812484642187144 39.83588068649078 63.34843725154195 H 0.0 **** 0.06
23586 C 19.789835376986332 90.71906005130057 75.27625582766773 C 0.0 **** -0.24
23587 H 19.60390609455962 89.95511635951385 76.03156309967444 H 0.0 **** 0.06
23588 H 20.116294932505213 91.63852233849673 75.76281620586225 H 0.0 **** 0.06
23589 H 18.873422094243296 90.9085533267023 74.71826689799553 H 0.0 **** 0.06
23590 H 20.565359879178715 90.37368190732508 74.59323580964545 H 0.0 **** 0.06
23591 C 73.00579270612334 68.49863606236761 90.97671075652019 C 0.0 **** -0.24
23592 H 73.4933721397509 68.00401199733976 90.13660597704526 H 0.0 **** 0.06
23593 H 73.39994199327438 68.09851181903525 91.91149934207974 H 0.0 **** 0.06
23594 H 71.93157107395601 68.32100940667901 90.92927296000303 H 0.0 **** 0.06
23595 H 73.20037937616505 69.57030059866841 90.92913047874222 H 0.0 **** 0.06
23596 C 91.40684506627655 18.218602275667983 29.485218304121766 C 0.0 **** -0.24
23597 H 92.01792924281516 18.485711198890527 28.622038859811653 H 0.0 **** 0.06
23598 H 90.48095515403949 17.75506866270779 29.144421918374924 H 0.0 **** 0.06
23599 H 91.17458510371661 19.1174190002102 30.056980970027432 H 0.0 **** 0.06
23600 H 91.95505685720298 17.51922398062864 30.115532891186312 H 0.0 **** 0.06
23601 C 31.218773188217142 61.91255930164502 25.45856283503194 C 0.0 **** -0.24
23602 H 31.012419190588133 62.54431565782912 24.594716418223932 H 0.0 **** 0.06
23603 H 31.99929991771819 61.194359270551416 25.20573781138053 H 0.0 **** 0.06
23604 H 30.311640703760105 61.37767084621109 25.742003779456226 H 0.0 **** 0.06
23605 H 31.550472085684135 62.53234667217171 26.29194881731862 H 0.0 **** 0.06
23606 C 32.82678870848571 10.50966705684013 92.37495618949794 C 0.0 **** -0.24
23607 H 31.94365978292609 9.87130429813098 92.34551121888914 H 0.0 **** 0.06
23608 H 32.944358756443705 10.919093731108319 93.37906369078124 H 0.0 **** 0.06
23609 H 32.70881966105151 11.32573911249716 91.66139087185518 H 0.0 **** 0.06
23610 H 33.707540158726545 9.923381187063256 92.1146132959406 H 0.0 **** 0.06
23611 C 59.432597438754215 3.2320832691401318 23.773281995768343 C 0.0 **** -0.24
23612 H 59.171879585525915 2.5830380183639043 24.608631092636074 H 0.0 **** 0.06
23613 H 60.49149701768158 3.117197560672963 23.54018394708487 H 0.0 **** 0.06
23614 H 59.2310764210836 4.269614246227928 24.042405635560385 H 0.0 **** 0.06
23615 H 58.83659681845862 2.959719043132637 22.902100206645684 H 0.0 **** 0.06
23616 C 51.07328115573972 120.21803419835342 0.7969092611891142 C 0.0 **** -0.24
23617 H 51.0951302441392 120.8333490458959 -0.10180587266117413 H 0.0 **** 0.06
23618 H 50.439041009283045 119.34840098788051 0.6268057975051988 H 0.0 **** 0.06
23619 H 50.675826521959266 120.80120907880081 1.6274431656230206 H 0.0 **** 0.06
23620 H 52.085263460360494 119.88966875022093 1.035634414041553 H 0.0 **** 0.06
23621 C 39.94192300973866 71.51010701247105 103.94778024101552 C 0.0 **** -0.24
23622 H 39.63353639591608 70.88848455507747 104.78941675320945 H 0.0 **** 0.06
23623 H 40.913841634117475 71.95451740739263 104.16312024364302 H 0.0 **** 0.06
23624 H 39.20730198922096 72.29910357183662 103.79094586432637 H 0.0 **** 0.06
23625 H 40.01389191903917 70.89499557810943 103.05082533427762 H 0.0 **** 0.06
23626 C 55.493103955848426 42.505631230220786 120.27250396242286 C 0.0 **** -0.24
23627 H 54.42721716249582 42.54681846949313 120.49954301072685 H 0.0 **** 0.06
23628 H 55.86305667521145 43.512591878358705 120.08153039650654 H 0.0 **** 0.06
23629 H 55.652577167885454 41.886316394538426 119.38960750375719 H 0.0 **** 0.06
23630 H 56.02802140938792 42.07519515850021 121.11911474448473 H 0.0 **** 0.06
23631 C 84.80901213190474 9.959847267307765 97.43245671920263 C 0.0 **** -0.24
23632 H 85.08509141209834 9.12368314684771 96.78991293872787 H 0.0 **** 0.06
23633 H 83.74726589352066 10.177479384936518 97.30895371812476 H 0.0 **** 0.06
23634 H 85.39486378126001 10.837000487396836 97.15963127269198 H 0.0 **** 0.06
23635 H 85.00715244102877 9.698824350099159 98.47198216692895 H 0.0 **** 0.06
23636 C 78.6464338090694 8.849719371383003 94.0163820651843 C 0.0 **** -0.24
23637 H 79.33043009469085 9.569442802890876 94.46573265499683 H 0.0 **** 0.06
23638 H 79.01568528008295 8.565676852559989 93.0309182611237 H 0.0 **** 0.06
23639 H 77.65873511406221 9.300790266499064 93.91847359164035 H 0.0 **** 0.06
23640 H 78.58148999295821 7.965254812932642 94.64976933196783 H 0.0 **** 0.06
23641 C 105.80940154551433 123.04076237138813 106.14502676793126 C 0.0 **** -0.24
23642 H 106.08377924912384 122.00504507463212 105.94470885807715 H 0.0 **** 0.06
23643 H 106.22277248254534 123.34755362227251 107.1052456209249 H 0.0 **** 0.06
23644 H 104.7234104020493 123.12984911720953 106.17149354602151 H 0.0 **** 0.06
23645 H 106.20605431692115 123.68048815915947 105.3567988879119 H 0.0 **** 0.06
23646 C 21.700141416694606 34.99060258273866 106.16826425015915 C 0.0 **** -0.24
23647 H 21.740832468428778 34.2479369045854 105.37159956280055 H 0.0 **** 0.06
23648 H 20.66542373491197 35.29709721458434 106.32570990625456 H 0.0 **** 0.06
23649 H 22.297564234991512 35.85722381303614 105.88802107078627 H 0.0 **** 0.06
23650 H 22.09517957719865 34.55830983430192 107.08811890718951 H 0.0 **** 0.06
23651 C 120.99359519781201 111.40968897158535 85.74815967195383 C 0.0 **** -0.24
23652 H 121.02368443712574 112.43575703700304 86.11413323114178 H 0.0 **** 0.06
23653 H 120.01048148277233 110.98206241744892 85.9498544051821 H 0.0 **** 0.06
23654 H 121.75718326023794 110.82034202657042 86.25517458492541 H 0.0 **** 0.06
23655 H 121.18086536368446 111.40139988923137 84.67510710961014 H 0.0 **** 0.06
23656 C 103.237749540041 73.98921361449001 29.419096375555142 C 0.0 **** -0.24
23657 H 104.2600110001222 73.61676953646727 29.349579126722176 H 0.0 **** 0.06
23658 H 102.64423818083651 73.57218124350263 28.605508657603906 H 0.0 **** 0.06
23659 H 103.24198809027797 75.07635001786863 29.348173047507515 H 0.0 **** 0.06
23660 H 102.80750201663588 73.68891551159041 30.374714419681055 H 0.0 **** 0.06
23661 C 112.5379885228158 99.37424632983982 116.41391855092765 C 0.0 **** -0.24
23662 H 111.56274170166651 98.92133679430623 116.24020554981209 H 0.0 **** 0.06
23663 H 113.22271911417846 98.62214577343354 116.8071901298873 H 0.0 **** 0.06
23664 H 112.4383132015063 100.18726780802854 117.13285776800768 H 0.0 **** 0.06
23665 H 112.92890612191752 99.76655972703372 115.47425136417148 H 0.0 **** 0.06
23666 C 75.50639467714427 89.81254319948364 58.40285289851366 C 0.0 **** -0.24
23667 H 76.31087497213491 89.9101395452243 59.13061111463517 H 0.0 **** 0.06
23668 H 75.85462947747163 90.15308761690035 57.42712609563509 H 0.0 **** 0.06
23669 H 74.65645431297025 90.41852183016108 58.71659958062045 H 0.0 **** 0.06
23670 H 75.20203112728126 88.76768774223459 58.335684071756276 H 0.0 **** 0.06
23671 C 33.555631089705486 81.97758334023405 101.06016886753793 C 0.0 **** -0.24
23672 H 33.755844228578724 82.78613918729489 100.35607943570014 H 0.0 **** 0.06
23673 H 33.670685921552746 81.01870954138421 100.55431794558373 H 0.0 **** 0.06
23674 H 32.53712861111339 82.0702348917426 101.43823386068921 H 0.0 **** 0.06
23675 H 34.258562671542194 82.03741796780346 101.8909454343015 H 0.0 **** 0.06
23676 C 61.64200160196057 51.568777866977626 100.55828627907522 C 0.0 **** -0.24
23677 H 61.54539051369292 52.14119240210559 101.48048450572325 H 0.0 **** 0.06
23678 H 62.51735420033211 50.922142907636015 100.62265076796427 H 0.0 **** 0.06
23679 H 61.75589683237476 52.252026364563136 99.71649646526642 H 0.0 **** 0.06
23680 H 60.749284619962424 50.95941286747362 100.41445151151102 H 0.0 **** 0.06
23681 C 26.619537316975155 62.55861716916229 87.0482517802096 C 0.0 **** -0.24
23682 H 26.601312472181547 61.978872904644334 87.97171169241312 H 0.0 **** 0.06
23683 H 27.639995867322398 62.88261906988191 86.84391671114602 H 0.0 **** 0.06
23684 H 25.97451392663143 63.4307144397315 87.15513433211405 H 0.0 **** 0.06
23685 H 26.261697001380284 61.94027864870003 86.22462533297582 H 0.0 **** 0.06
23686 C 90.27144667265935 94.55555196570438 64.27493146954049 C 0.0 **** -0.24
23687 H 89.68968302554086 95.31064095211863 63.745977402964655 H 0.0 **** 0.06
23688 H 90.46140732096231 93.71309345358142 63.61013052390746 H 0.0 **** 0.06
23689 H 89.71341828800749 94.21324230979488 65.14668496173692 H 0.0 **** 0.06
23690 H 91.21902808096027 94.98717266936913 64.59652239668114 H 0.0 **** 0.06
23691 C 36.929627551036674 4.825872573403853 15.486843478091146 C 0.0 **** -0.24
23692 H 37.15044640896767 3.8032495849271655 15.793682186295541 H 0.0 **** 0.06
23693 H 37.25980885751218 4.976064327106613 14.459417860533733 H 0.0 **** 0.06
23694 H 37.45224146365385 5.5220408592243295 16.142948752509767 H 0.0 **** 0.06
23695 H 35.855962129025045 5.001282446276647 15.553391484969552 H 0.0 **** 0.06
23696 C 7.9747544005534365 62.86678688818313 118.08645363926405 C 0.0 **** -0.24
23697 H 7.074629347835696 62.913867679871146 117.47225165254488 H 0.0 **** 0.06
23698 H 8.838829730908426 62.680512572296095 117.4492030034921 H 0.0 **** 0.06
23699 H 7.876343005659248 62.059242098778554 118.81189234517834 H 0.0 **** 0.06
23700 H 8.10621329958149 63.812764524742306 118.61182834353068 H 0.0 **** 0.06
23701 C 45.763500973864325 84.32188931355998 51.55903248976435 C 0.0 **** -0.24
23702 H 45.22554938773894 85.14593633199563 51.09058366859864 H 0.0 **** 0.06
23703 H 46.19544637637071 83.68450779972342 50.786739317012504 H 0.0 **** 0.06
23704 H 45.07322381115131 83.737591117636 52.16812509822148 H 0.0 **** 0.06
23705 H 46.559222077959504 84.71880827853374 52.18959809221607 H 0.0 **** 0.06
23706 C 14.105951825864953 91.87741525222106 108.5073664015975 C 0.0 **** -0.24
23707 H 13.09627965928345 91.70297676395256 108.13442259543494 H 0.0 **** 0.06
23708 H 14.087482292473002 92.68731665762965 109.23727896343581 H 0.0 **** 0.06
23709 H 14.757138847591193 92.14972423084814 107.67781417528127 H 0.0 **** 0.06
23710 H 14.479639420983585 90.96923523529654 108.98102702052782 H 0.0 **** 0.06
23711 C 66.84433995691359 36.66221978238514 52.335828388490086 C 0.0 **** -0.24
23712 H 67.23866927253005 35.70132060929305 52.668216627651134 H 0.0 **** 0.06
23713 H 66.34862164777724 36.53805100411279 51.37341572154483 H 0.0 **** 0.06
23714 H 67.6645330933826 37.373810709878796 52.232647165122216 H 0.0 **** 0.06
23715 H 66.12988659004805 37.03555779629849 53.06880503625251 H 0.0 **** 0.06
23716 C 10.374934804449481 9.256355430635036 103.94113674002367 C 0.0 **** -0.24
23717 H 9.840397408779836 10.197235548217805 103.81125190333134 H 0.0 **** 0.06
23718 H 10.549344751514695 8.800243445367482 102.96628763833061 H 0.0 **** 0.06
23719 H 9.778946658984353 8.581979388855896 104.55660634004559 H 0.0 **** 0.06
23720 H 11.330055619042241 9.445863056288427 104.43038081576753 H 0.0 **** 0.06
23721 C 68.96703855280845 23.640019185313122 118.33559947499526 C 0.0 **** -0.24
23722 H 68.25927377586942 23.409237798196898 119.13172614451702 H 0.0 **** 0.06
23723 H 68.42728069861869 23.767858649421044 117.39621651496095 H 0.0 **** 0.06
23724 H 69.68140009028639 22.823279010939586 118.23654020254897 H 0.0 **** 0.06
23725 H 69.49823971564041 24.561025073898577 118.57727740971193 H 0.0 **** 0.06
23726 C 104.07649027684411 97.36524426699674 36.97514652797986 C 0.0 **** -0.24
23727 H 104.50829176691647 98.34564305412226 36.774153008930114 H 0.0 **** 0.06
23728 H 104.48250801303502 96.97329928036271 37.90714136589213 H 0.0 **** 0.06
23729 H 104.32173517854861 96.68696136189953 36.15814779829293 H 0.0 **** 0.06
23730 H 102.99391705734197 97.45643451021743 37.05943906969844 H 0.0 **** 0.06
23731 C 65.28471674395577 103.96997663092925 8.236424190648368 C 0.0 **** -0.24
23732 H 65.63240755112533 103.86796090642626 9.264596656457254 H 0.0 **** 0.06
23733 H 66.03224272027555 104.50674551834871 7.651385865937431 H 0.0 **** 0.06
23734 H 64.34578907350885 104.52399167292218 8.223313070470216 H 0.0 **** 0.06
23735 H 65.12871951332238 102.98046324439007 7.805801534321475 H 0.0 **** 0.06
23736 C 12.09708521943432 111.58189850213157 19.88800467253253 C 0.0 **** -0.24
23737 H 11.612790497572746 111.26131532261601 18.96537810738981 H 0.0 **** 0.06
23738 H 11.545773197058168 111.18724579166073 20.74237817524542 H 0.0 **** 0.06
23739 H 12.107365782404912 112.67028868936805 19.933455147604022 H 0.0 **** 0.06
23740 H 13.12010411507518 111.20698600921631 19.910041973241448 H 0.0 **** 0.06
23741 C 48.83845968757345 51.92195437226634 69.7322774610646 C 0.0 **** -0.24
23742 H 49.90340798995277 52.136978915647944 69.81960591763135 H 0.0 **** 0.06
23743 H 48.57729857592432 51.101156734372836 70.40137752774228 H 0.0 **** 0.06
23744 H 48.607962556743075 51.64024421840719 68.70481058909564 H 0.0 **** 0.06
23745 H 48.2653605301532 52.80854491759865 70.00372408806646 H 0.0 **** 0.06
23746 C 47.41345106609174 107.47670911596329 39.62673125062581 C 0.0 **** -0.24
23747 H 46.84084545747771 106.55032964618157 39.669093834554786 H 0.0 **** 0.06
23748 H 48.199719867432464 107.45229466019019 40.38255538344333 H 0.0 **** 0.06
23749 H 46.75267801474007 108.32217285522907 39.816606773079826 H 0.0 **** 0.06
23750 H 47.86247082136754 107.58050753443318 38.63858961449142 H 0.0 **** 0.06
23751 C 13.273155507224203 86.00883913124318 18.698964051610005 C 0.0 **** -0.24
23752 H 14.098621175176788 85.29906533447286 18.760789154619317 H 0.0 **** 0.06
23753 H 13.334358501464095 86.71115903465767 19.53014793086595 H 0.0 **** 0.06
23754 H 12.327115155344359 85.4692697480985 18.746411446351715 H 0.0 **** 0.06
23755 H 13.333224160984543 86.55394127902508 17.756311316676488 H 0.0 **** 0.06
23756 C 59.94585199119689 102.93901913780783 68.77014804081163 C 0.0 **** -0.24
23757 H 60.707193737571515 102.75706443100616 68.01095176056207 H 0.0 **** 0.06
23758 H 59.41882983259387 102.00917564470505 68.98549767223378 H 0.0 **** 0.06
23759 H 59.23782401785013 103.68197053522854 68.40306043082016 H 0.0 **** 0.06
23760 H 60.42095717196656 103.307587933555 69.67967805964597 H 0.0 **** 0.06
23761 C 106.4333699938463 60.604483996126675 122.29034161169686 C 0.0 **** -0.24
23762 H 105.81927153140646 60.35186754149774 121.42668505706126 H 0.0 **** 0.06
23763 H 106.66681766287707 59.69701028307642 122.84732936782854 H 0.0 **** 0.06
23764 H 105.88914905815912 61.29655770385136 122.93376784594905 H 0.0 **** 0.06
23765 H 107.35824172294255 61.072500456081315 121.9535841759485 H 0.0 **** 0.06
23766 C 5.417935455365779 102.1675661128873 13.372997037492883 C 0.0 **** -0.24
23767 H 6.430621636439923 102.09448656379564 13.768658191421725 H 0.0 **** 0.06
23768 H 4.824964931688498 102.82358272746414 14.012125344454173 H 0.0 **** 0.06
23769 H 4.96446115963289 101.17624375676844 13.34877304827971 H 0.0 **** 0.06
23770 H 5.451211718968068 102.5776734791406 12.363327101784243 H 0.0 **** 0.06
23771 C 61.161689870985754 101.4009427893982 29.372889831756055 C 0.0 **** -0.24
23772 H 61.14132767164233 101.04415703842123 30.40314905723929 H 0.0 **** 0.06
23773 H 60.9722095881375 100.56815306233393 28.695881572741172 H 0.0 **** 0.06
23774 H 62.14118562361227 101.82808662006923 29.157369677601338 H 0.0 **** 0.06
23775 H 60.39466574088328 102.16268114763352 29.237729568415062 H 0.0 **** 0.06
23776 C 112.74767226848267 1.2303445752352218 41.87827781697956 C 0.0 **** -0.24
23777 H 113.57557899103878 1.2891621471873407 42.58482976776821 H 0.0 **** 0.06
23778 H 111.83218608328882 0.9747566424383365 42.412176291460526 H 0.0 **** 0.06
23779 H 112.96069615186337 0.46412323905170183 41.13272070425148 H 0.0 **** 0.06
23780 H 112.62342741558352 2.194022377085389 41.383083831179704 H 0.0 **** 0.06
23781 C 85.25813116105638 37.570084164212204 55.25408136536167 C 0.0 **** -0.24
23782 H 85.23568565411223 37.505051627321734 54.16561099350528 H 0.0 **** 0.06
23783 H 85.89546594366442 36.78041576169139 55.65176702832447 H 0.0 **** 0.06
23784 H 84.24701180485549 37.4528614264307 55.644714462075754 H 0.0 **** 0.06
23785 H 85.65311368574258 38.541155310351115 55.551280455727095 H 0.0 **** 0.06
23786 C 68.46081526473102 101.50732980394855 48.69206987989436 C 0.0 **** -0.24
23787 H 67.47640779343718 101.3580416164811 48.24895064874703 H 0.0 **** 0.06
23788 H 69.1212163469533 100.69384485930016 48.389472069423476 H 0.0 **** 0.06
23789 H 68.371012855993 101.51879269265922 49.777728099342966 H 0.0 **** 0.06
23790 H 68.87220734319598 102.45684208156587 48.35116572601457 H 0.0 **** 0.06
23791 C 53.42035598422093 120.22699656191801 52.51855431780265 C 0.0 **** -0.24
23792 H 53.486659539871724 121.23734270753704 52.11338487310263 H 0.0 **** 0.06
23793 H 52.38616604573501 119.88596329807683 52.47598475495536 H 0.0 **** 0.06
23794 H 53.761021008702656 120.22924057919741 53.554451063703894 H 0.0 **** 0.06
23795 H 54.04920838297157 119.55905711130552 51.93151670693065 H 0.0 **** 0.06
23796 C 77.40925877574925 93.14014770893873 67.1783706340745 C 0.0 **** -0.24
23797 H 76.41103204518234 93.00061523084226 67.59508020661133 H 0.0 **** 0.06
23798 H 78.01680732732727 93.71531753599521 67.87788632119947 H 0.0 **** 0.06
23799 H 77.33583261364858 93.67650008923192 66.23283778109669 H 0.0 **** 0.06
23800 H 77.8704213043197 92.16754402057107 67.0099074748058 H 0.0 **** 0.06
23801 C 13.747582416258666 83.18922200289578 90.9462818129937 C 0.0 **** -0.24
23802 H 14.20590190680744 83.71584110062645 90.11021531694331 H 0.0 **** 0.06
23803 H 14.031558919387777 83.67464180653167 91.88056695356008 H 0.0 **** 0.06
23804 H 14.089095082908813 82.15399002457741 90.95590335889665 H 0.0 **** 0.06
23805 H 12.663168996979437 83.21194310161803 90.83999457590082 H 0.0 **** 0.06
23806 C 56.27160636480804 6.425004749533571 112.25200068579518 C 0.0 **** -0.24
23807 H 56.99269398108112 7.230344275972925 112.11041809597924 H 0.0 **** 0.06
23808 H 56.3016035923024 6.089324416833421 113.28957318773688 H 0.0 **** 0.06
23809 H 56.52224667103016 5.593309599915074 111.59399514613332 H 0.0 **** 0.06
23810 H 55.27110671002106 6.787150853121204 112.01588347618164 H 0.0 **** 0.06
23811 C 68.01805151249748 109.99693970651788 23.289449801817085 C 0.0 **** -0.24
23812 H 68.19769298859973 109.85132340263607 22.224712985722007 H 0.0 **** 0.06
23813 H 68.20460079374526 109.06312807478889 23.819907070462776 H 0.0 **** 0.06
23814 H 66.98395147823614 110.30397503355067 23.44528986201213 H 0.0 **** 0.06
23815 H 68.6867299595162 110.76987766183908 23.668222497563562 H 0.0 **** 0.06
23816 C 4.518843009917646 8.923831264523947 8.530373898887262 C 0.0 **** -0.24
23817 H 5.262915322685444 9.52042767283482 9.057618431165935 H 0.0 **** 0.06
23818 H 3.6206361599685124 8.83955606638466 9.141837581121763 H 0.0 **** 0.06
23819 H 4.92233039529755 7.9294779371739565 8.337684699107996 H 0.0 **** 0.06
23820 H 4.271311232407498 9.404695439328798 7.583789304558451 H 0.0 **** 0.06
23821 C 27.109359634707808 56.49107338489523 113.04321884877493 C 0.0 **** -0.24
23822 H 26.81098497608452 57.30526437691981 112.38275514724558 H 0.0 **** 0.06
23823 H 27.105243609845118 56.84089151539098 114.07508947522592 H 0.0 **** 0.06
23824 H 28.11295463219649 56.15716025592252 112.77625459917326 H 0.0 **** 0.06
23825 H 26.410901059749605 55.66194202506705 112.93576445329865 H 0.0 **** 0.06
23826 C 34.805784631807626 30.702278243885445 11.283232673694442 C 0.0 **** -0.24
23827 H 34.88402993405202 31.590853491537757 10.655789068920853 H 0.0 **** 0.06
23828 H 35.29616944890449 29.863741037707 10.787677580128715 H 0.0 **** 0.06
23829 H 33.755436117198485 30.464008051540986 11.446618551735845 H 0.0 **** 0.06
23830 H 35.290252149095465 30.891329376981957 12.2415142793317 H 0.0 **** 0.06
23831 C 41.05498445417835 109.94997847143804 98.17788279886825 C 0.0 **** -0.24
23832 H 40.88864258406048 110.16798760441108 97.12240699737451 H 0.0 **** 0.06
23833 H 40.742281870423426 110.80480823251236 98.77809685798044 H 0.0 **** 0.06
23834 H 42.11354662823655 109.75487566237611 98.34547053607837 H 0.0 **** 0.06
23835 H 40.47363236453387 109.0728003207167 98.46234362045078 H 0.0 **** 0.06
23836 C 12.374068095399764 87.52283333325478 79.54569747127164 C 0.0 **** -0.24
23837 H 11.3688043316955 87.9424724333059 79.49674291173719 H 0.0 **** 0.06
23838 H 12.81517857649142 87.7534787627351 80.51607884311403 H 0.0 **** 0.06
23839 H 12.986662876993591 87.95513573114181 78.75547225174279 H 0.0 **** 0.06
23840 H 12.322232751472214 86.44244555057035 79.41687216943433 H 0.0 **** 0.06
23841 C 57.45942432289263 17.350776469557843 121.66881578607553 C 0.0 **** -0.24
23842 H 58.226992674652024 18.11414010185746 121.79219505493262 H 0.0 **** 0.06
23843 H 57.76784014905621 16.438125425305486 122.17926704136306 H 0.0 **** 0.06
23844 H 57.320647402158556 17.143826383560565 120.607744003564 H 0.0 **** 0.06
23845 H 56.5214688046305 17.705610966426605 122.095370127997 H 0.0 **** 0.06
23846 C 85.51685231075798 10.449384005120862 90.00294649871871 C 0.0 **** -0.24
23847 H 84.643717194075 11.10218517429115 89.99113810459656 H 0.0 **** 0.06
23848 H 85.19200081836394 9.409510171294471 90.01307388156943 H 0.0 **** 0.06
23849 H 86.11067923610648 10.65450852615794 90.89329372554869 H 0.0 **** 0.06
23850 H 86.11981257045731 10.634859823917282 89.11393729544294 H 0.0 **** 0.06
23851 C 17.37840071554689 110.14785998826865 39.78238749801653 C 0.0 **** -0.24
23852 H 16.32365862322638 110.25373059323275 39.527781404587444 H 0.0 **** 0.06
23853 H 17.98452171851619 110.30728522055887 38.89110214352195 H 0.0 **** 0.06
23854 H 17.559081693790176 109.14556799884068 40.17101182528242 H 0.0 **** 0.06
23855 H 17.644517345752547 110.88492472359384 40.540473415502504 H 0.0 **** 0.06
23856 C 65.88512891655836 20.918894937519944 36.59023296412727 C 0.0 **** -0.24
23857 H 65.61649303054472 21.13888821572086 35.55693608807496 H 0.0 **** 0.06
23858 H 66.77998876739807 20.297706105394447 36.607464542370394 H 0.0 **** 0.06
23859 H 65.06427968939761 20.389426968735407 37.07371296535172 H 0.0 **** 0.06
23860 H 66.07882013958434 21.852056050197554 37.12039126420865 H 0.0 **** 0.06
23861 C 9.666219260313312 36.37436902995275 62.171164631970925 C 0.0 **** -0.24
23862 H 10.214786913755006 37.30230527354972 62.33527620552633 H 0.0 **** 0.06
23863 H 9.451949643121822 35.904758647056894 63.13161888398312 H 0.0 **** 0.06
23864 H 10.268713398741312 35.70013472237996 61.56263640112334 H 0.0 **** 0.06
23865 H 8.731077597577467 36.592080956110635 61.65528064237509 H 0.0 **** 0.06
23866 C 65.9556241404963 43.77063614507037 105.8697605796101 C 0.0 **** -0.24
23867 H 66.94058893719571 43.32049153293954 105.98838948757594 H 0.0 **** 0.06
23868 H 65.73633452949892 44.39758485544644 106.73475142098305 H 0.0 **** 0.06
23869 H 65.20397461513969 42.98468654247645 105.79048910166915 H 0.0 **** 0.06
23870 H 65.94080405439692 44.37892404960914 104.96620824635961 H 0.0 **** 0.06
23871 C 59.5780398260535 41.82484552497701 56.66309857215862 C 0.0 **** -0.24
23872 H 59.63788968751177 42.90017994829077 56.49986102391949 H 0.0 **** 0.06
23873 H 58.638361596626396 41.447326827731075 56.260077286347666 H 0.0 **** 0.06
23874 H 59.62501850032962 41.61672701589009 57.73132013989965 H 0.0 **** 0.06
23875 H 60.41242858299762 41.33500808394294 56.160353673271686 H 0.0 **** 0.06
23876 C 83.17733522067158 80.18737812203574 90.33529167731109 C 0.0 **** -0.24
23877 H 82.64630903172662 80.1649959862319 89.38383862278734 H 0.0 **** 0.06
23878 H 83.24970836868664 81.2175129269049 90.68675891205376 H 0.0 **** 0.06
23879 H 84.17741621176191 79.77692864780431 90.20231479394693 H 0.0 **** 0.06
23880 H 82.63325100523764 79.59054384871806 91.06910573020798 H 0.0 **** 0.06
23881 C 9.086817277351031 121.33965035937426 34.91194619193743 C 0.0 **** -0.24
23882 H 8.130432455787854 121.40856215540887 34.39467074779225 H 0.0 **** 0.06
23883 H 9.820721660194891 121.96369586125391 34.402898820954846 H 0.0 **** 0.06
23884 H 9.426496906457118 120.30385574153716 34.90971580597284 H 0.0 **** 0.06
23885 H 8.968933595963478 121.68044453727903 35.93990163816218 H 0.0 **** 0.06
23886 C 69.67591673109153 79.75667332096498 21.343957156769477 C 0.0 **** -0.24
23887 H 69.47010158413036 79.03584082095895 20.552635893461257 H 0.0 **** 0.06
23888 H 68.7370675719253 80.07475871231726 21.79935670575216 H 0.0 **** 0.06
23889 H 70.1875539037912 80.62206122697647 20.923196106298462 H 0.0 **** 0.06
23890 H 70.30802531948001 79.29345055024842 22.101544183291224 H 0.0 **** 0.06
23891 C 122.0374099076478 28.67979200051692 36.454710690950215 C 0.0 **** -0.24
23892 H 121.76687615755174 29.589481920032036 35.91928057383841 H 0.0 **** 0.06
23893 H 121.24052418754461 28.41877177811636 37.152172790703084 H 0.0 **** 0.06
23894 H 122.96329290455917 28.844953455750876 37.00623050879199 H 0.0 **** 0.06
23895 H 122.17777441658897 27.866904470956918 35.742016932700665 H 0.0 **** 0.06
23896 C 41.78619355648132 89.37240347483576 34.13266478180072 C 0.0 **** -0.24
23897 H 42.49525798347835 89.61910315828129 34.922185871610694 H 0.0 **** 0.06
23898 H 41.39038801203145 90.29182210161662 33.70021927656501 H 0.0 **** 0.06
23899 H 40.96828978564041 88.78504071539162 34.549505395101505 H 0.0 **** 0.06
23900 H 42.291352215727414 88.79408479332938 33.359486986436686 H 0.0 **** 0.06
23901 C 62.2928002821662 54.515967896990446 88.08136517969052 C 0.0 **** -0.24
23902 H 62.641152416873524 54.55446681023571 87.04870192810762 H 0.0 **** 0.06
23903 H 62.868093623631864 55.21775299905357 88.68461298094815 H 0.0 **** 0.06
23904 H 62.4255214135523 53.5067830788943 88.47113537509847 H 0.0 **** 0.06
23905 H 61.23760209722087 54.783947723219 88.11906443550293 H 0.0 **** 0.06
23906 C 79.79145877965999 21.454613290598942 99.15098302141247 C 0.0 **** -0.24
23907 H 79.06185191817957 22.132431895538303 99.59418780307966 H 0.0 **** 0.06
23908 H 79.5749883442437 21.331681392262965 98.09034691856694 H 0.0 **** 0.06
23909 H 79.73524902575713 20.486297434560612 99.64860696663429 H 0.0 **** 0.06
23910 H 80.79271782686197 21.86889236309608 99.27347764912601 H 0.0 **** 0.06
23911 C 63.97089679986834 18.900462309908903 70.24192299965048 C 0.0 **** -0.24
23912 H 64.18324162498864 17.875398270748292 70.54899661823237 H 0.0 **** 0.06
23913 H 64.42138508325516 19.59197099985647 70.95334741555378 H 0.0 **** 0.06
23914 H 62.893296065206854 19.05517752848391 70.21530636796123 H 0.0 **** 0.06
23915 H 64.38800021834969 19.075360992072888 69.24994067991015 H 0.0 **** 0.06
23916 C 59.43182997926297 85.3508299911057 4.037447416480688 C 0.0 **** -0.24
23917 H 59.840828297862316 85.62841122348857 5.009229682976439 H 0.0 **** 0.06
23918 H 58.35464278163707 85.51735924537638 4.035336966437313 H 0.0 **** 0.06
23919 H 59.63718487011707 84.29745190722612 3.844748865618257 H 0.0 **** 0.06
23920 H 59.89538848704868 85.95968664305727 3.2610275485190527 H 0.0 **** 0.06
23921 C 47.52251785324151 91.77469953743125 52.01538168652186 C 0.0 **** -0.24
23922 H 47.75866783552297 92.82361722741118 52.198907316882085 H 0.0 **** 0.06
23923 H 46.45961634782367 91.60627352584208 52.191258992614536 H 0.0 **** 0.06
23924 H 48.105980101132104 91.14812197150415 52.68948630077614 H 0.0 **** 0.06
23925 H 47.76436596061377 91.52291562624704 50.983051296236155 H 0.0 **** 0.06
23926 C 82.57405570966367 116.06713042625665 31.503863118451136 C 0.0 **** -0.24
23927 H 81.60189750715367 115.74812219779807 31.127098039841783 H 0.0 **** 0.06
23928 H 82.82192232272898 115.49639341022396 32.39930834619605 H 0.0 **** 0.06
23929 H 82.5368447123635 117.12893525221487 31.748200144757277 H 0.0 **** 0.06
23930 H 83.33314380403674 115.89521145038601 30.74123424494536 H 0.0 **** 0.06
23931 C 32.45434082659719 17.69649463708491 83.62468063013117 C 0.0 **** -0.24
23932 H 32.2958515924922 17.085577824152537 84.51363931495845 H 0.0 **** 0.06
23933 H 32.230308692096315 17.10699038963095 82.73483057027363 H 0.0 **** 0.06
23934 H 33.493405447266156 18.024486243089086 83.59099173271896 H 0.0 **** 0.06
23935 H 31.799343373451194 18.566669452433302 83.66049686015762 H 0.0 **** 0.06
23936 C 93.48961912545201 92.89975942272372 5.363137404394557 C 0.0 **** -0.24
23937 H 93.83258591002877 93.03338414109851 6.388640146784439 H 0.0 **** 0.06
23938 H 93.23379477987774 93.86938525775554 4.936672495381536 H 0.0 **** 0.06
23939 H 92.60961844567767 92.25559832363422 5.3555836799152665 H 0.0 **** 0.06
23940 H 94.28178115696626 92.4394824399385 4.771328986917343 H 0.0 **** 0.06
23941 C 92.65709912560257 28.94716419542484 2.128819923624235 C 0.0 **** -0.24
23942 H 92.68748171358723 28.539384926735515 3.1390781375290686 H 0.0 **** 0.06
23943 H 92.46670899188028 30.019329629561646 2.1750646683209993 H 0.0 **** 0.06
23944 H 91.8610121824211 28.45984001579354 1.5657236251122129 H 0.0 **** 0.06
23945 H 93.61341155563926 28.767910785195774 1.6358011150932725 H 0.0 **** 0.06
23946 C 48.47908775263775 115.37747187378864 73.98013186429941 C 0.0 **** -0.24
23947 H 47.932593386218684 114.79587101928121 73.2366440394577 H 0.0 **** 0.06
23948 H 49.54027730043498 115.37915814612171 73.72974487250787 H 0.0 **** 0.06
23949 H 48.337990426834665 114.93167091803247 74.96425061108556 H 0.0 **** 0.06
23950 H 48.105524704464955 116.40043928736384 73.98698148288202 H 0.0 **** 0.06
23951 C 102.75328395126263 34.97885009302999 112.74449913365498 C 0.0 **** -0.24
23952 H 102.70428211291814 34.15479605150302 113.45605900215196 H 0.0 **** 0.06
23953 H 101.9850779472814 34.845924642692275 111.98254435658419 H 0.0 **** 0.06
23954 H 103.73604350958911 34.99257028839266 112.2715887861907 H 0.0 **** 0.06
23955 H 102.58904840211537 35.92062458954034 113.26755281804714 H 0.0 **** 0.06
23956 C 30.983632060278467 43.69786708895947 67.7407151711553 C 0.0 **** -0.24
23957 H 31.1744310009355 42.64993031610567 67.9750441398869 H 0.0 **** 0.06
23958 H 31.77079628429871 44.31589523283105 68.1737307110134 H 0.0 **** 0.06
23959 H 30.0200703802698 43.99267019331302 68.15466885370179 H 0.0 **** 0.06
23960 H 30.970346706813217 43.83003028277591 66.65910476732714 H 0.0 **** 0.06
23961 C 91.20534756199442 10.807469087487561 29.480853994206598 C 0.0 **** -0.24
23962 H 91.23972858382626 10.170003283410722 28.598026752841292 H 0.0 **** 0.06
23963 H 92.03041151935633 11.51862274549029 29.44727392612492 H 0.0 **** 0.06
23964 H 91.29213746920243 10.191464742992764 30.376496737641332 H 0.0 **** 0.06
23965 H 90.25942434736328 11.348529862125474 29.50218965167784 H 0.0 **** 0.06
23966 C 122.48450652690485 72.42129682980024 17.032030396450807 C 0.0 **** -0.24
23967 H 121.70084132983797 73.01054975648569 17.507641082881065 H 0.0 **** 0.06
23968 H 122.04490759988889 71.53332148644458 16.576713658991565 H 0.0 **** 0.06
23969 H 123.2192901351334 72.12115728909507 17.77927000055243 H 0.0 **** 0.06
23970 H 122.97251832967555 73.020112815678 16.263163313508016 H 0.0 **** 0.06
23971 C 119.17981867291859 69.18972263817813 71.4791181225479 C 0.0 **** -0.24
23972 H 118.26120508229815 68.60934165344477 71.38831759643517 H 0.0 **** 0.06
23973 H 120.03529128415315 68.5142571409082 71.49888427072443 H 0.0 **** 0.06
23974 H 119.15322192044988 69.76992138273874 72.40098562227098 H 0.0 **** 0.06
23975 H 119.26773324075671 69.86450771518616 70.62731951743058 H 0.0 **** 0.06
23976 C 123.53052207416077 28.4715653516227 30.526639401446403 C 0.0 **** -0.24
23977 H 124.49515781517283 28.959871716635774 30.389831267353514 H 0.0 **** 0.06
23978 H 123.51055187227803 27.540550012139533 29.959498876423538 H 0.0 **** 0.06
23979 H 122.73616804929225 29.129391167662646 30.17299463155058 H 0.0 **** 0.06
23980 H 123.3789893886453 28.256602530924994 31.58492934003027 H 0.0 **** 0.06
23981 C 29.199574881380414 16.982216078962438 11.182660861378423 C 0.0 **** -0.24
23982 H 29.054292630242173 17.8321248988471 10.514991906644752 H 0.0 **** 0.06
23983 H 28.348695791709815 16.30536962818607 11.100536537577113 H 0.0 **** 0.06
23984 H 29.284927928879597 17.337787367022372 12.209312020932998 H 0.0 **** 0.06
23985 H 30.112217372750138 16.4549923534982 10.903892929919522 H 0.0 **** 0.06
23986 C 46.047467865914115 122.06033336017505 44.263164598925215 C 0.0 **** -0.24
23987 H 44.95893658683511 122.09291339410585 44.21368814596274 H 0.0 **** 0.06
23988 H 46.46361475938872 122.86363207952928 43.65503414610902 H 0.0 **** 0.06
23989 H 46.39976856517819 121.09994157684552 43.88654734236716 H 0.0 **** 0.06
23990 H 46.36755155225448 122.18484639021946 45.297388761262106 H 0.0 **** 0.06
23991 C 90.4115669383554 66.78172825222929 30.55933061563185 C 0.0 **** -0.24
23992 H 90.7985113590907 65.97174311239908 29.940059382867673 H 0.0 **** 0.06
23993 H 89.53141987353837 66.43546900927943 31.101757038662527 H 0.0 **** 0.06
23994 H 90.13887539546761 67.62507260448777 29.92479823709499 H 0.0 **** 0.06
23995 H 91.17778719674584 67.09342323496388 31.26885259356962 H 0.0 **** 0.06
23996 C 59.789164352061874 85.76775378036425 77.77277638373812 C 0.0 **** -0.24
23997 H 59.03399455082146 85.68062071011454 76.99070082331329 H 0.0 **** 0.06
23998 H 60.71902046052199 86.13429471375001 77.33939895126849 H 0.0 **** 0.06
23999 H 59.958219083333006 84.79031830791638 78.22474442375145 H 0.0 **** 0.06
24000 H 59.442175536306365 86.4654656617545 78.53443021416243 H 0.0 **** 0.06
24001 C 84.78970586564887 109.19687987684047 114.2397725989066 C 0.0 **** -0.24
24002 H 84.44875872229042 109.21114586336962 115.2748915410242 H 0.0 **** 0.06
24003 H 83.954624466713 108.94798835382699 113.58570171503393 H 0.0 **** 0.06
24004 H 85.57562022630353 108.44930711022499 114.12659420198753 H 0.0 **** 0.06
24005 H 85.18091837529303 110.17885804430611 113.9727662585785 H 0.0 **** 0.06
24006 C 50.00294106611045 73.79836137290351 115.39839179223009 C 0.0 **** -0.24
24007 H 49.78791552790926 72.80861281307102 115.80328141041758 H 0.0 **** 0.06
24008 H 49.102232489109554 74.20599281300167 114.94053884641335 H 0.0 **** 0.06
24009 H 50.79017206758698 73.72030126266691 114.64830999993166 H 0.0 **** 0.06
24010 H 50.33215458099414 74.45573132874586 116.2038065730822 H 0.0 **** 0.06
24011 C 27.664774225717736 1.711263772364589 78.20374749878496 C 0.0 **** -0.24
24012 H 26.85841267206939 2.4403412172560763 78.1324960844987 H 0.0 **** 0.06
24013 H 27.880062283706195 1.3102947811900094 77.21247926316016 H 0.0 **** 0.06
24014 H 27.36343452448176 0.8999391363017821 78.86666034986015 H 0.0 **** 0.06
24015 H 28.556921032442006 2.193789120437799 78.60214935300301 H 0.0 **** 0.06
24016 C 69.69021959464897 24.029244032477386 21.366084324654565 C 0.0 **** -0.24
24017 H 69.8597325177295 25.038728989768373 20.991270762356173 H 0.0 **** 0.06
24018 H 68.62219717657436 23.81030728182227 21.347387627899515 H 0.0 **** 0.06
24019 H 70.0594348977738 23.953516593843865 22.387846533843906 H 0.0 **** 0.06
24020 H 70.21917682628268 23.314480750399596 20.73485183165178 H 0.0 **** 0.06
24021 C 48.78153018410794 18.49407055788928 33.38085360228308 C 0.0 **** -0.24
24022 H 48.540056380605364 18.195774430823924 34.40137433442689 H 0.0 **** 0.06
24023 H 49.641385204320834 19.165460702184458 33.393240756393226 H 0.0 **** 0.06
24024 H 47.92622145934336 19.006972086243746 32.94154427116061 H 0.0 **** 0.06
24025 H 49.018664693800176 17.610381716978708 32.790193926972705 H 0.0 **** 0.06
24026 C 21.70973656546905 31.986085284625005 74.50944106765257 C 0.0 **** -0.24
24027 H 22.015003714790446 31.141970332018445 75.12681822584275 H 0.0 **** 0.06
24028 H 22.591140758965615 32.448330767174696 74.0648868275607 H 0.0 **** 0.06
24029 H 21.188310779309624 32.718096785527734 75.12661288105119 H 0.0 **** 0.06
24030 H 21.044990827468744 31.636726386733926 73.71981638710821 H 0.0 **** 0.06
24031 C 18.551231887547683 11.62707894331487 5.043763494744631 C 0.0 **** -0.24
24032 H 18.157889488906928 10.70089697726462 5.462717463156334 H 0.0 **** 0.06
24033 H 19.492802180074037 11.876333991282365 5.532566099066955 H 0.0 **** 0.06
24034 H 17.832741451850556 12.431837514147503 5.206170262495348 H 0.0 **** 0.06
24035 H 18.71802631031624 11.500131098478278 3.9740380252271947 H 0.0 **** 0.06
24036 C 106.17937591506978 114.79963606046073 11.485285810322399 C 0.0 **** -0.24
24037 H 105.57321408876527 115.70053647804224 11.383133672141298 H 0.0 **** 0.06
24038 H 107.23417478761979 115.07387271398795 11.5166440667914 H 0.0 **** 0.06
24039 H 105.99950174515351 114.14349005165894 10.63371114946655 H 0.0 **** 0.06
24040 H 105.90872647095085 114.28310164195642 12.405555183070561 H 0.0 **** 0.06
24041 C 44.173498592851246 37.31297783096241 19.3956280602104 C 0.0 **** -0.24
24042 H 45.11833828071255 36.82416663714366 19.158220638839282 H 0.0 **** 0.06
24043 H 43.71972337950896 36.825714565128095 20.259118835052945 H 0.0 **** 0.06
24044 H 43.50163628542679 37.237062487598436 18.54025992550386 H 0.0 **** 0.06
24045 H 44.354904802968605 38.362848398685884 19.62384558295732 H 0.0 **** 0.06
24046 C 79.73223086302531 39.79632424559176 33.775811100993195 C 0.0 **** -0.24
24047 H 80.62078170074594 39.959772671783355 34.384759926224746 H 0.0 **** 0.06
24048 H 79.39360089241151 40.748293496594215 33.36482559325859 H 0.0 **** 0.06
24049 H 78.94298969320513 39.36561801901763 34.391248489734664 H 0.0 **** 0.06
24050 H 79.97166029781604 39.11259050522156 32.960402300888376 H 0.0 **** 0.06
24051 C 52.72795683543916 95.29857546026918 7.212181766758999 C 0.0 **** -0.24
24052 H 53.533432144029405 96.03065623740645 7.160510376799003 H 0.0 **** 0.06
24053 H 51.78266486620737 95.78163913061218 6.963058628644244 H 0.0 **** 0.06
24054 H 52.67289969165131 94.8893353962743 8.220656336241298 H 0.0 **** 0.06
24055 H 52.92277245256156 94.49344390540327 6.503318738703399 H 0.0 **** 0.06
24056 C 22.953837809010906 59.890555875098215 66.79935622717981 C 0.0 **** -0.24
24057 H 22.88436899281598 60.366964134113005 65.82169629910587 H 0.0 **** 0.06
24058 H 23.208395716070783 60.63944993720597 67.55058439740878 H 0.0 **** 0.06
24059 H 23.7273925761547 59.12251511181435 66.77413404414649 H 0.0 **** 0.06
24060 H 21.99708109374623 59.434309731459166 67.05037150195989 H 0.0 **** 0.06
24061 C 85.63100033688613 64.02588648747378 14.135716513646571 C 0.0 **** -0.24
24062 H 86.078281559334 63.03793633766455 14.250537157561183 H 0.0 **** 0.06
24063 H 85.87635046227693 64.4224729500487 13.150649416245557 H 0.0 **** 0.06
24064 H 86.0207937246901 64.69242464494029 14.904977002446174 H 0.0 **** 0.06
24065 H 84.54819703664842 63.9469900103698 14.236766544125686 H 0.0 **** 0.06
24066 C 70.64341676320633 35.39451155059045 123.16748854607667 C 0.0 **** -0.24
24067 H 71.0721983349107 36.386043681147854 123.02189970938252 H 0.0 **** 0.06
24068 H 69.63333255558072 35.48978458958961 123.56563755854664 H 0.0 **** 0.06
24069 H 71.25979112063838 34.83200996858791 123.86883891143736 H 0.0 **** 0.06
24070 H 70.61028469275868 34.86996337522337 122.21210211459942 H 0.0 **** 0.06
24071 C 32.79811214810806 4.662137209470814 66.73307197121454 C 0.0 **** -0.24
24072 H 32.033954904020845 3.970657852058366 66.37842609388109 H 0.0 **** 0.06
24073 H 33.719659724052605 4.113904246169227 66.93022272859142 H 0.0 **** 0.06
24074 H 32.456726337820726 5.141262090799671 67.65027900597546 H 0.0 **** 0.06
24075 H 32.98150792269006 5.420658385767922 65.9727508107588 H 0.0 **** 0.06
24076 C 8.058203327727597 17.250899097365675 43.24301358373185 C 0.0 **** -0.24
24077 H 8.248377755744002 18.28435858466969 43.53142967867444 H 0.0 **** 0.06
24078 H 8.123693220262282 17.15864662109891 42.15796134038061 H 0.0 **** 0.06
24079 H 7.0609200383710515 16.958882384098615 43.57310603272225 H 0.0 **** 0.06
24080 H 8.799682812083347 16.60145299077658 43.70817337087618 H 0.0 **** 0.06
24081 C 42.7655828126812 86.15827580435885 68.36639090130006 C 0.0 **** -0.24
24082 H 41.8838506394373 85.51969430975768 68.43241238729718 H 0.0 **** 0.06
24083 H 43.655150823498616 85.53809335718168 68.2494966119699 H 0.0 **** 0.06
24084 H 42.852373622183336 86.75134573703772 69.2767694570615 H 0.0 **** 0.06
24085 H 42.669607622409046 86.8226322412398 67.50806523358335 H 0.0 **** 0.06
24086 C 111.07833650315948 78.91194385555333 94.8819601525182 C 0.0 **** -0.24
24087 H 111.31306508262563 78.5967210537993 93.86441856604088 H 0.0 **** 0.06
24088 H 110.0203266524068 79.16790300279605 94.9475485407074 H 0.0 **** 0.06
24089 H 111.67936947266472 79.78280066376716 95.14026501590064 H 0.0 **** 0.06
24090 H 111.29948879254749 78.09924377552058 95.57400419971542 H 0.0 **** 0.06
24091 C 100.73195955807154 57.3826003854538 3.6830827900349448 C 0.0 **** -0.24
24092 H 101.53485851344135 57.60463419661852 2.981003809687806 H 0.0 **** 0.06
24093 H 99.79876508453344 57.80900894594939 3.3145864662546387 H 0.0 **** 0.06
24094 H 100.97006730697541 57.815638790760374 4.655181141526015 H 0.0 **** 0.06
24095 H 100.62479419617114 56.30259368376963 3.7831118157657784 H 0.0 **** 0.06
24096 C 46.358523933941115 32.97394918361181 50.54362063291222 C 0.0 **** -0.24
24097 H 46.994633228019694 33.80418963521515 50.85386985119712 H 0.0 **** 0.06
24098 H 45.391294315347864 33.05194075822851 51.04159047740319 H 0.0 **** 0.06
24099 H 46.8336617203355 32.032206547697456 50.816227560359806 H 0.0 **** 0.06
24100 H 46.21555421197067 33.0109668492554 49.46357152773942 H 0.0 **** 0.06
24101 C 38.42980181274163 103.98637226776874 56.00727787864055 C 0.0 **** -0.24
24102 H 38.92226964049439 103.72691088883528 56.94432212919847 H 0.0 **** 0.06
24103 H 37.74651837894817 104.81915821557301 56.174816057666746 H 0.0 **** 0.06
24104 H 37.87131496464366 103.12587634959338 55.63940847221406 H 0.0 **** 0.06
24105 H 39.17964574823338 104.27542858402843 55.2701725392631 H 0.0 **** 0.06
24106 C 59.023404393947104 1.2470742580884746 117.12797366109413 C 0.0 **** -0.24
24107 H 58.675550131250915 0.772230501419898 118.04505353451123 H 0.0 **** 0.06
24108 H 58.20153755466767 1.3043284213885897 116.41365817482617 H 0.0 **** 0.06
24109 H 59.83670955583638 0.6606577774556115 116.70040479495512 H 0.0 **** 0.06
24110 H 59.38036143593054 2.2532494020297804 117.35272702794538 H 0.0 **** 0.06
24111 C 70.92039839720678 2.5021920473960932 118.56563527240884 C 0.0 **** -0.24
24112 H 71.35930805162252 2.239352330786531 117.60271297496335 H 0.0 **** 0.06
24113 H 69.98835291983357 1.9544653094062738 118.70161801956708 H 0.0 **** 0.06
24114 H 70.72007100043612 3.5730472413655576 118.59276030976342 H 0.0 **** 0.06
24115 H 71.61555924889728 2.24169330355366 119.36400957287086 H 0.0 **** 0.06
24116 C 58.635523310773834 101.50325311770072 117.29248550086251 C 0.0 **** -0.24
24117 H 59.31415535046645 100.72622891140932 116.94241468251583 H 0.0 **** 0.06
24118 H 59.21380012037244 102.35315672743599 117.65686520437072 H 0.0 **** 0.06
24119 H 58.018579957027015 101.1100671467004 118.10004129321824 H 0.0 **** 0.06
24120 H 57.99597218125322 101.82457493212647 116.4697276929854 H 0.0 **** 0.06
24121 C 106.10552953683036 118.23374448219006 114.720735201525 C 0.0 **** -0.24
24122 H 107.11518668877981 118.61112585007412 114.88312501248924 H 0.0 **** 0.06
24123 H 105.62451123604218 118.81183855450917 113.9316735121738 H 0.0 **** 0.06
24124 H 105.53007476856261 118.32559360646007 115.64146166103876 H 0.0 **** 0.06
24125 H 106.15395430289114 117.18519477880791 114.42572620549052 H 0.0 **** 0.06
24126 C 48.41202719532188 23.758415812612014 34.033441938436695 C 0.0 **** -0.24
24127 H 47.854387378458 22.958100169662146 33.54652363140435 H 0.0 **** 0.06
24128 H 49.47699434643371 23.529779987432477 34.003553951701655 H 0.0 **** 0.06
24129 H 48.08816923078166 23.847767156803997 35.06968562902242 H 0.0 **** 0.06
24130 H 48.22733373565882 24.698646287771936 33.512242574185024 H 0.0 **** 0.06
24131 C 50.19957315588161 58.93744638326004 53.39290215173604 C 0.0 **** -0.24
24132 H 49.85301990694583 59.217022071373336 52.39808258117834 H 0.0 **** 0.06
24133 H 50.54890752694746 59.82618676175508 53.91876882822373 H 0.0 **** 0.06
24134 H 51.01601488832736 58.22146655599077 53.30479181929854 H 0.0 **** 0.06
24135 H 49.377508479846114 58.48500090553806 53.94858239089562 H 0.0 **** 0.06
24136 C 19.634591417684078 16.25461721683189 47.62378066594232 C 0.0 **** -0.24
24137 H 18.92509915378534 15.95803871471432 46.850630822743454 H 0.0 **** 0.06
24138 H 19.113666179902225 16.823264296742963 48.39531563168558 H 0.0 **** 0.06
24139 H 20.41628605333679 16.872211539692387 47.18212081325461 H 0.0 **** 0.06
24140 H 20.080900930583965 15.365278361059865 48.06732193564565 H 0.0 **** 0.06
24141 C 62.98686048387856 26.1415222336081 6.791565321284054 C 0.0 **** -0.24
24142 H 63.81430549304952 26.729133752452526 6.394208865484984 H 0.0 **** 0.06
24143 H 62.438970064601165 25.682170526452524 5.96951681726685 H 0.0 **** 0.06
24144 H 62.318429759352256 26.792630661106102 7.356019000605755 H 0.0 **** 0.06
24145 H 63.3765602180346 25.363867344416462 7.448837506393943 H 0.0 **** 0.06
24146 C 114.47557767195943 90.20791472383962 70.18525607100554 C 0.0 **** -0.24
24147 H 115.21139348761412 90.45667586689325 69.42060734091575 H 0.0 **** 0.06
24148 H 113.51168759903804 90.6418828382808 69.91645429660738 H 0.0 **** 0.06
24149 H 114.79925133356652 90.60793962428897 71.14573517233507 H 0.0 **** 0.06
24150 H 114.37797507228993 89.12444375708986 70.25701350738038 H 0.0 **** 0.06
24151 C 116.8603536497383 107.56359969660514 88.3449588088938 C 0.0 **** -0.24
24152 H 117.45430101061254 108.25814125407933 88.93889167935296 H 0.0 **** 0.06
24153 H 117.2972610581768 106.566502481019 88.40678768314244 H 0.0 **** 0.06
24154 H 116.84941565589641 107.89228994106173 87.30582850796324 H 0.0 **** 0.06
24155 H 115.84001749566663 107.5383634448595 88.72819633015348 H 0.0 **** 0.06
24156 C 120.78595711824005 21.893351568673637 118.72757281760155 C 0.0 **** -0.24
24157 H 121.30284567069083 22.834650114367065 118.91128160435679 H 0.0 **** 0.06
24158 H 121.18248674370199 21.125138286784505 119.39196227730886 H 0.0 **** 0.06
24159 H 120.93770489320167 21.592090423026804 117.69143720759831 H 0.0 **** 0.06
24160 H 119.71983283412158 22.021588034644225 118.91588943803765 H 0.0 **** 0.06
24161 C 65.38858779801083 23.62873333483455 45.78907575557491 C 0.0 **** -0.24
24162 H 66.31261540097316 24.16101592814657 46.012377969204024 H 0.0 **** 0.06
24163 H 65.60496022316866 22.570196295736253 45.64322636859374 H 0.0 **** 0.06
24164 H 64.9430067129451 24.037728802161794 44.88270228391613 H 0.0 **** 0.06
24165 H 64.69239855173689 23.745525568856095 46.61970071476903 H 0.0 **** 0.06
24166 C 109.33762984381838 29.186093425979237 91.13566269533156 C 0.0 **** -0.24
24167 H 110.33060589942295 29.040136791926784 91.56041309310314 H 0.0 **** 0.06
24168 H 108.8730520934908 30.062713017107654 91.58830203412396 H 0.0 **** 0.06
24169 H 108.72432672139985 28.307034924189395 91.33294706272142 H 0.0 **** 0.06
24170 H 109.42205723496136 29.335246652660942 90.05870861238803 H 0.0 **** 0.06
24171 C 2.057902519706886 87.13413775983813 112.0042768927885 C 0.0 **** -0.24
24172 H 1.1882657671724246 86.5223578463154 112.24502361556547 H 0.0 **** 0.06
24173 H 2.6643465216287154 86.62463656681132 111.25528294916015 H 0.0 **** 0.06
24174 H 2.650289145890838 87.29293683127324 112.90613371136804 H 0.0 **** 0.06
24175 H 1.727318956401291 88.09523969541922 111.61270801117688 H 0.0 **** 0.06
24176 C 112.42708701068067 41.49717719208223 18.26105094865727 C 0.0 **** -0.24
24177 H 111.70107944812608 42.25063712798749 17.955672743690883 H 0.0 **** 0.06
24178 H 112.24059824487368 40.57117639474424 17.717141792547196 H 0.0 **** 0.06
24179 H 112.33437268900961 41.315404211882026 19.331333291674056 H 0.0 **** 0.06
24180 H 113.43360818623772 41.852657910184234 18.038669896634246 H 0.0 **** 0.06
24181 C 104.71933728281573 97.33889012967839 46.13052028432014 C 0.0 **** -0.24
24182 H 104.3928948337404 97.12498209199538 45.11269544874699 H 0.0 **** 0.06
24183 H 105.45870384423776 98.13967338416526 46.1150290881277 H 0.0 **** 0.06
24184 H 105.16279059778503 96.44318968635412 46.565017188458455 H 0.0 **** 0.06
24185 H 103.86256790995054 97.64688345361003 46.729732311926 H 0.0 **** 0.06
24186 C 117.5217213521284 50.68554606897075 87.77448577371742 C 0.0 **** -0.24
24187 H 117.40203168438967 49.77674262182248 87.18460833692438 H 0.0 **** 0.06
24188 H 116.56862299091591 50.94921358576957 88.2323729141426 H 0.0 **** 0.06
24189 H 117.85093987146234 51.497141904848604 87.12589341052153 H 0.0 **** 0.06
24190 H 118.26628302602555 50.51672098619255 88.55296554562842 H 0.0 **** 0.06
24191 C 60.71188803150977 16.603565276937644 71.61220799234121 C 0.0 **** -0.24
24192 H 61.39222419626168 17.197572454644728 72.22292962610271 H 0.0 **** 0.06
24193 H 59.88631643864437 16.248140945486696 72.2293772023203 H 0.0 **** 0.06
24194 H 61.24801109766207 15.75035604765226 71.19672782251014 H 0.0 **** 0.06
24195 H 60.32167473989119 17.217308124927925 70.80067180684678 H 0.0 **** 0.06
24196 C 109.95189949969523 42.78987838418087 32.34578921185059 C 0.0 **** -0.24
24197 H 110.33616516330818 43.242999823387834 33.26025825384943 H 0.0 **** 0.06
24198 H 109.38302264390421 41.894613886103485 32.59607562833338 H 0.0 **** 0.06
24199 H 110.78517790865956 42.52121171495415 31.69568531377169 H 0.0 **** 0.06
24200 H 109.30481494314694 43.500677874875294 31.831841386226472 H 0.0 **** 0.06
24201 C 17.545640191588348 27.109760138562763 47.54602946714817 C 0.0 **** -0.24
24202 H 17.962464862620493 27.426221250279916 46.5902516541187 H 0.0 **** 0.06
24203 H 18.17713509200081 26.33372222063217 47.979479684018344 H 0.0 **** 0.06
24204 H 16.54097744794376 26.716306766548087 47.39267725997877 H 0.0 **** 0.06
24205 H 17.50245164028871 27.962774926898092 48.22304365704656 H 0.0 **** 0.06
24206 C 73.85941746192813 32.49886197718445 63.93296207648834 C 0.0 **** -0.24
24207 H 74.5679419743017 31.7597950797487 64.30780054467951 H 0.0 **** 0.06
24208 H 73.53435273760803 32.21641951872806 62.93119766486444 H 0.0 **** 0.06
24209 H 74.33865051994192 33.47742510477593 63.89781084546334 H 0.0 **** 0.06
24210 H 72.9952954066824 32.54116430831084 64.596633937647 H 0.0 **** 0.06
24211 C 81.8874399618424 2.632257995231754 57.498371847551894 C 0.0 **** -0.24
24212 H 82.41926787968367 3.5038290409058845 57.88021041895523 H 0.0 **** 0.06
24213 H 81.1944457172109 2.942267711880689 56.71603836678966 H 0.0 **** 0.06
24214 H 81.33175506642812 2.1628725762022043 58.31026552407771 H 0.0 **** 0.06
24215 H 82.60411418974064 1.9204493587309912 57.08865215505395 H 0.0 **** 0.06
24216 C 86.71256538774814 74.30200446595993 44.918830662717454 C 0.0 **** -0.24
24217 H 86.30315000825702 73.87408447735544 45.8338531936453 H 0.0 **** 0.06
24218 H 87.2752312526616 75.20309268718543 45.159799062162506 H 0.0 **** 0.06
24219 H 85.89767150092145 74.55221420332646 44.239175769682845 H 0.0 **** 0.06
24220 H 87.37321390632692 73.57664814336971 44.44354183638271 H 0.0 **** 0.06
24221 C 2.769246819323671 44.642167814957816 26.986531242042986 C 0.0 **** -0.24
24222 H 3.311241218326204 45.47095838198439 27.442600320059455 H 0.0 **** 0.06
24223 H 3.4373525956559305 43.787162489097 26.877364687825605 H 0.0 **** 0.06
24224 H 2.4026764060220884 44.94414672931933 26.005038696572058 H 0.0 **** 0.06
24225 H 1.9263482939519587 44.36663405479615 27.61952482420054 H 0.0 **** 0.06
24226 C 87.66276260863756 23.650416022582547 7.052132521705715 C 0.0 **** -0.24
24227 H 87.38918334130899 22.596567369956837 7.094488896539332 H 0.0 **** 0.06
24228 H 88.10206528905039 23.87246882907923 6.078582564099836 H 0.0 **** 0.06
24229 H 88.38638022152843 23.870859320817594 7.837335708782643 H 0.0 **** 0.06
24230 H 86.7720951253948 24.262964126655326 7.196777025629856 H 0.0 **** 0.06
24231 C 33.79942089975805 6.458484518819461 36.94492868277121 C 0.0 **** -0.24
24232 H 33.75034294681447 5.962139224839149 35.97585985248337 H 0.0 **** 0.06
24233 H 32.79948892876334 6.781731562601095 37.23729865715022 H 0.0 **** 0.06
24234 H 34.45560541632884 7.32569761952783 36.87496444452331 H 0.0 **** 0.06
24235 H 34.18987247423067 5.765791997154281 37.68907331533828 H 0.0 **** 0.06
24236 C 22.475277740061756 4.084942322389708 75.08280243335923 C 0.0 **** -0.24
24237 H 23.14309854890024 3.9554756390393493 75.93461665292295 H 0.0 **** 0.06
24238 H 22.210212971483294 3.1081689068380314 74.6778690046518 H 0.0 **** 0.06
24239 H 22.977744698388072 4.672904457102277 74.31448400226978 H 0.0 **** 0.06
24240 H 21.57278568925262 4.603920998011802 75.40446669379496 H 0.0 **** 0.06
24241 C 89.91417156648365 26.928729244028347 107.7715135831709 C 0.0 **** -0.24
24242 H 90.1800775633317 27.044570857448377 108.82235678949894 H 0.0 **** 0.06
24243 H 89.51640334988667 27.86985861838818 107.39175358419052 H 0.0 **** 0.06
24244 H 89.16041445570941 26.148146670629984 107.67191573018306 H 0.0 **** 0.06
24245 H 90.80161052601864 26.652043472784698 107.2016409441924 H 0.0 **** 0.06
24246 C 80.97039185277377 115.9441760698354 116.86429567443486 C 0.0 **** -0.24
24247 H 80.48941136494075 114.97136381284787 116.9714770560386 H 0.0 **** 0.06
24248 H 80.26231296200955 116.72974181068703 117.13112997402064 H 0.0 **** 0.06
24249 H 81.29121635428149 116.07799089394547 115.83110162147796 H 0.0 **** 0.06
24250 H 81.83625916939526 115.9960090974313 117.5243902405496 H 0.0 **** 0.06
24251 C 77.98317900222743 123.9787049281086 61.07516579483158 C 0.0 **** -0.24
24252 H 78.63538821080745 124.84705831399017 61.16305891692582 H 0.0 **** 0.06
24253 H 77.35739702971975 124.08341344154336 60.188516038729375 H 0.0 **** 0.06
24254 H 77.35123866656674 123.9069963316773 61.95994992398738 H 0.0 **** 0.06
24255 H 78.58899764276305 123.0764276132256 60.98712506480527 H 0.0 **** 0.06
24256 C 63.565662438147 33.68965051251176 80.49521895241797 C 0.0 **** -0.24
24257 H 62.626703222508695 33.791126196795034 79.95133388626981 H 0.0 **** 0.06
24258 H 64.19616621402851 34.55752353308095 80.29728913401394 H 0.0 **** 0.06
24259 H 64.07868654802122 32.78530130673252 80.16861144651129 H 0.0 **** 0.06
24260 H 63.36083416013501 33.62558171985472 81.56389910814151 H 0.0 **** 0.06
24261 C 72.75986813763487 116.81423486917515 81.38540869685548 C 0.0 **** -0.24
24262 H 73.42784909527299 116.48808373870827 80.58763890797886 H 0.0 **** 0.06
24263 H 72.23655507584911 117.71814791862747 81.07320305828301 H 0.0 **** 0.06
24264 H 73.34155781325242 117.0229921913022 82.28352797255187 H 0.0 **** 0.06
24265 H 72.03540798847064 116.028349131601 81.59526512591484 H 0.0 **** 0.06
24266 C 87.97164504160337 51.735676686668995 89.60486773782198 C 0.0 **** -0.24
24267 H 88.41821667898964 50.741447696279465 89.61209181553922 H 0.0 **** 0.06
24268 H 87.27088110305729 51.8237557884884 90.43596927154609 H 0.0 **** 0.06
24269 H 87.44169779947651 51.889400859322706 88.66498131199158 H 0.0 **** 0.06
24270 H 88.75561991385001 52.486085396202924 89.70840465891153 H 0.0 **** 0.06
24271 C 100.32866741673888 2.0637847091477113 25.044224571625932 C 0.0 **** -0.24
24272 H 99.47401406598493 1.7407151131238372 24.449658843873436 H 0.0 **** 0.06
24273 H 100.0603279054871 2.051960300668023 26.101886588292814 H 0.0 **** 0.06
24274 H 100.61229612142847 3.0750622662042293 24.753043944840925 H 0.0 **** 0.06
24275 H 101.16555470138624 1.388264910191742 24.874338594537647 H 0.0 **** 0.06
24276 C 109.39792963752927 5.103085511361826 94.39661376957008 C 0.0 **** -0.24
24277 H 110.15865153260455 5.431706572243428 95.1042146920474 H 0.0 **** 0.06
24278 H 109.772604952162 4.251007957203171 93.82962704479661 H 0.0 **** 0.06
24279 H 109.16073881585422 5.918708552363512 93.71308739211537 H 0.0 **** 0.06
24280 H 108.49870129517285 4.811672338257182 94.9401489607898 H 0.0 **** 0.06
24281 C 20.778614527779553 54.42434099443123 115.4168858860991 C 0.0 **** -0.24
24282 H 20.66694737904578 54.67149731266052 114.36166228276707 H 0.0 **** 0.06
24283 H 20.959862644170585 53.35360864791532 115.52159589712798 H 0.0 **** 0.06
24284 H 19.868559223695854 54.69407801374251 115.95131072529014 H 0.0 **** 0.06
24285 H 21.621484601787415 54.977065241133104 115.83155399529866 H 0.0 **** 0.06
24286 C 78.36130332546816 26.650073479419483 111.57375405274047 C 0.0 **** -0.24
24287 H 79.28146952220902 26.08008026148626 111.44177050061893 H 0.0 **** 0.06
24288 H 78.5802331558051 27.71518394441906 111.5031417670811 H 0.0 **** 0.06
24289 H 77.93606694501159 26.429796552690895 112.55306085796374 H 0.0 **** 0.06
24290 H 77.64855205806566 26.372405712532917 110.79792488899275 H 0.0 **** 0.06
24291 C 13.998663857894837 23.9646295167868 2.0203124472388794 C 0.0 **** -0.24
24292 H 13.105732775711584 24.209742156096468 2.59557986006277 H 0.0 **** 0.06
24293 H 14.16064205746973 22.88691489383703 2.042379759010288 H 0.0 **** 0.06
24294 H 14.860396761565081 24.470729671157443 2.4555419796281654 H 0.0 **** 0.06
24295 H 13.86746803623792 24.29170266491238 0.9889732665284896 H 0.0 **** 0.06
24296 C 5.016250020292688 9.28393394495697 96.47907315257257 C 0.0 **** -0.24
24297 H 4.307182525600723 9.315065233104121 95.65125621175923 H 0.0 **** 0.06
24298 H 4.687380245166732 8.544977771939102 97.21102414289984 H 0.0 **** 0.06
24299 H 5.0677480520164515 10.264805093252903 96.95094857469115 H 0.0 **** 0.06
24300 H 6.001611223099413 9.008777329228394 96.10244353997477 H 0.0 **** 0.06
24301 C 77.65145316607487 51.259326867027 123.9228332499534 C 0.0 **** -0.24
24302 H 77.86203014731865 51.601897908021265 122.91011459173633 H 0.0 **** 0.06
24303 H 78.28405975573837 50.401645208887224 124.15440365924113 H 0.0 **** 0.06
24304 H 76.60398427631227 50.96910783186476 123.99728110049467 H 0.0 **** 0.06
24305 H 77.85782481321283 52.06368830418482 124.6286909648522 H 0.0 **** 0.06
24306 C 54.54203696206932 29.153995744234976 0.38615481479899927 C 0.0 **** -0.24
24307 H 53.91539075867112 28.323479166981627 0.7100721163341746 H 0.0 **** 0.06
24308 H 55.59141905616062 28.8639929266391 0.4503993844813863 H 0.0 **** 0.06
24309 H 54.362916677833624 30.015217789714328 1.030834804240385 H 0.0 **** 0.06
24310 H 54.29864079713499 29.413486467903567 -0.6437012571182095 H 0.0 **** 0.06
24311 C 3.2831344088121597 28.406600030569223 59.84891146163875 C 0.0 **** -0.24
24312 H 3.702399071080549 27.56137704110904 59.303457589347005 H 0.0 **** 0.06
24313 H 2.4850979495385133 28.85997026330182 59.261059488719724 H 0.0 **** 0.06
24314 H 4.0653107043985415 29.14491437147882 60.031183216055865 H 0.0 **** 0.06
24315 H 2.882427309980031 28.06069730188574 60.801792794968605 H 0.0 **** 0.06
24316 C 37.37371518824837 115.821408513443 109.41823771748875 C 0.0 **** -0.24
24317 H 36.623909913221695 115.19613928678133 109.90357284283797 H 0.0 **** 0.06
24318 H 36.89538815071553 116.71457664222447 109.01473342570756 H 0.0 **** 0.06
24319 H 37.844280776670715 115.26333937415978 108.60871836948928 H 0.0 **** 0.06
24320 H 38.13087221206838 116.11215313585726 110.14663494967596 H 0.0 **** 0.06
24321 C 3.8423900907264397 60.27131027144179 6.546874061648737 C 0.0 **** -0.24
24322 H 3.038292066798846 60.84483582785117 6.08534992038858 H 0.0 **** 0.06
24323 H 3.9891124860698426 60.613950525850896 7.571507137134574 H 0.0 **** 0.06
24324 H 4.762382927374233 60.41466077379789 5.980121449547823 H 0.0 **** 0.06
24325 H 3.5791794646771393 59.213889351942385 6.550010345634291 H 0.0 **** 0.06
24326 C 62.3563120321561 50.39395253474325 42.01693060242508 C 0.0 **** -0.24
24327 H 61.507510157423894 50.49099495231329 42.693169320839274 H 0.0 **** 0.06
24328 H 63.27361745388072 50.654962500019295 42.54535685678161 H 0.0 **** 0.06
24329 H 62.22230078436144 51.06449846364722 41.167243055202675 H 0.0 **** 0.06
24330 H 62.42153623195003 49.365864343213374 41.66114110658225 H 0.0 **** 0.06
24331 C 94.95588586475903 68.44478794847983 118.63334225649763 C 0.0 **** -0.24
24332 H 95.4435940763713 67.50334302919889 118.88635782182834 H 0.0 **** 0.06
24333 H 93.88207833754988 68.28306508235427 118.54011240206034 H 0.0 **** 0.06
24334 H 95.35138274815525 68.81507106493639 117.68775973133413 H 0.0 **** 0.06
24335 H 95.14733330969543 69.1748005689289 119.41933342481636 H 0.0 **** 0.06
24336 C 29.16507246760409 76.04575474513962 18.548563356006525 C 0.0 **** -0.24
24337 H 30.21602945278994 75.8032417731057 18.389996019256785 H 0.0 **** 0.06
24338 H 28.85973826938084 75.71073000985483 19.539000669462553 H 0.0 **** 0.06
24339 H 28.559843447115213 75.54527522642626 17.792463619984034 H 0.0 **** 0.06
24340 H 29.025419819060858 77.12427082392867 18.469159571477945 H 0.0 **** 0.06
24341 C 57.66710896014206 11.723804840368445 14.209321782282927 C 0.0 **** -0.24
24342 H 57.21545572160829 11.739706440511469 15.20201371986127 H 0.0 **** 0.06
24343 H 57.60771912903169 10.715788761155721 13.799281393375622 H 0.0 **** 0.06
24344 H 58.71202722307265 12.025673148510947 14.2819307579623 H 0.0 **** 0.06
24345 H 57.133674930014195 12.414441178314263 13.557618481832549 H 0.0 **** 0.06
24346 C 59.443409535062756 8.58105591925272 18.846588823958484 C 0.0 **** -0.24
24347 H 59.82455198582507 8.39194174410892 17.8429554350256 H 0.0 **** 0.06
24348 H 58.50558587799233 8.042135912500555 18.986959065478032 H 0.0 **** 0.06
24349 H 59.271029491876206 9.649839294544705 18.973620028827753 H 0.0 **** 0.06
24350 H 60.17145698272719 8.241138959014478 19.58229189878071 H 0.0 **** 0.06
24351 C 56.252006701588755 106.13112480404465 60.74539212004933 C 0.0 **** -0.24
24352 H 55.237699883513 106.39521926101446 61.04302520386102 H 0.0 **** 0.06
24353 H 56.29786720142532 105.06664677548714 60.5171619607477 H 0.0 **** 0.06
24354 H 56.94024093052738 106.35799929858139 61.56001310640181 H 0.0 **** 0.06
24355 H 56.532539901800135 106.70498628637733 59.86224727228122 H 0.0 **** 0.06
24356 C 31.339064830061126 71.8768733800726 74.25860601205777 C 0.0 **** -0.24
24357 H 31.27780543957938 71.4108062060102 73.27608309223899 H 0.0 **** 0.06
24358 H 30.461324713868024 72.50473977747254 74.41817696800962 H 0.0 **** 0.06
24359 H 32.23898620155047 72.49021001313565 74.31475283039771 H 0.0 **** 0.06
24360 H 31.37784540464021 71.10408374881837 75.0260491285801 H 0.0 **** 0.06
24361 C 107.79918776879936 34.12549365434663 52.89582251858752 C 0.0 **** -0.24
24362 H 108.86573407492986 33.91662306821627 52.98504592445241 H 0.0 **** 0.06
24363 H 107.64049019556862 35.204147895448756 52.88634352867075 H 0.0 **** 0.06
24364 H 107.2721438832209 33.68794536477395 53.743330578366084 H 0.0 **** 0.06
24365 H 107.42038764819698 33.693063908990126 51.969964176626746 H 0.0 **** 0.06
24366 C 1.8787627721213482 33.44733824656703 117.63601088400868 C 0.0 **** -0.24
24367 H 1.048870013730152 33.19151453096069 116.97776403932028 H 0.0 **** 0.06
24368 H 2.8156936135998762 33.37579993850929 117.08380207881636 H 0.0 **** 0.06
24369 H 1.8993840680166727 32.757484008666665 118.47943282898736 H 0.0 **** 0.06
24370 H 1.7497061075657996 34.466221168088225 118.00191757544249 H 0.0 **** 0.06
24371 C 28.2842506812314 45.90165254027988 9.047745902058779 C 0.0 **** -0.24
24372 H 27.42410551594817 46.5173699122067 9.312561257137304 H 0.0 **** 0.06
24373 H 28.19568903045689 45.58217233583824 8.009103051248815 H 0.0 **** 0.06
24374 H 28.317110543608713 45.026661368080084 9.696421746493115 H 0.0 **** 0.06
24375 H 29.198603088089634 46.4820666021121 9.17279359047518 H 0.0 **** 0.06
24376 C 75.66201795137147 63.64337944453308 82.54586280220843 C 0.0 **** -0.24
24377 H 76.0794828801358 63.979286717721266 81.5964134518348 H 0.0 **** 0.06
24378 H 75.03756139691637 64.4311185321285 82.96776192363569 H 0.0 **** 0.06
24379 H 76.4725877843324 63.41249715176025 83.23776140088718 H 0.0 **** 0.06
24380 H 75.05914950363552 62.74992672046744 82.38166291771256 H 0.0 **** 0.06
24381 C 89.14182568679526 96.76794513232069 79.86535389005064 C 0.0 **** -0.24
24382 H 89.14659753293803 96.07224093835515 80.70555369414654 H 0.0 **** 0.06
24383 H 88.21439986154287 97.33959553414812 79.87275675610033 H 0.0 **** 0.06
24384 H 89.21794166970241 96.21016857171992 78.93245447168658 H 0.0 **** 0.06
24385 H 89.9892210349146 97.44777900786207 79.95271933571047 H 0.0 **** 0.06
24386 C 13.635944320309111 46.05417126247477 61.62025816177561 C 0.0 **** -0.24
24387 H 13.963733819000076 46.29506801064707 60.609379599271634 H 0.0 **** 0.06
24388 H 13.918649007409499 45.02832739254458 61.85875801120579 H 0.0 **** 0.06
24389 H 12.552626309638555 46.15672586802728 61.68458043387268 H 0.0 **** 0.06
24390 H 14.108541513531343 46.7360564974818 62.32748312364758 H 0.0 **** 0.06
24391 C 47.11117666926165 28.381480470225853 118.66567157537119 C 0.0 **** -0.24
24392 H 47.16727199804754 28.331331553429123 117.57883854261624 H 0.0 **** 0.06
24393 H 46.68698954331316 27.45301516622166 119.05061738863081 H 0.0 **** 0.06
24394 H 46.47796871737873 29.21914698466354 118.95871121290712 H 0.0 **** 0.06
24395 H 48.111905911187876 28.521574358888245 119.07549158944033 H 0.0 **** 0.06
24396 C 63.680309281819035 119.20407657316622 7.408991492097925 C 0.0 **** -0.24
24397 H 64.04526708231282 118.5833932372127 8.227095817829564 H 0.0 **** 0.06
24398 H 64.45343568459197 119.29145650458543 6.646759292288806 H 0.0 **** 0.06
24399 H 63.429839798900204 120.19453276844668 7.789871142696569 H 0.0 **** 0.06
24400 H 62.7907482295206 118.74689295813779 6.975435273827287 H 0.0 **** 0.06
24401 C 37.040468947486886 26.000650700762918 72.57896438755995 C 0.0 **** -0.24
24402 H 37.86264654659345 25.311682618664975 72.77059853254929 H 0.0 **** 0.06
24403 H 37.38610762591901 26.809231738286513 71.93374473821319 H 0.0 **** 0.06
24404 H 36.68621142783667 26.414034782816245 73.52358650743338 H 0.0 **** 0.06
24405 H 36.226595493932564 25.466333635301453 72.08832601821223 H 0.0 **** 0.06
24406 C 122.10341967292388 63.729271235571105 94.57134509190907 C 0.0 **** -0.24
24407 H 122.48584984615829 62.924057243012584 95.19934775472544 H 0.0 **** 0.06
24408 H 122.69601755469668 64.63082997167443 94.73596727341967 H 0.0 **** 0.06
24409 H 121.06262069922573 63.9275485837874 94.82723626828349 H 0.0 **** 0.06
24410 H 122.17158208589993 63.43608740766683 93.52393026818197 H 0.0 **** 0.06
24411 C 55.55191378801473 110.64473892051555 4.627565210357346 C 0.0 **** -0.24
24412 H 55.1610175610126 109.63312842598577 4.51575249232252 H 0.0 **** 0.06
24413 H 56.5855107487906 110.59876961348908 4.971426931616122 H 0.0 **** 0.06
24414 H 54.950124589103666 111.18824528994105 5.355877840644155 H 0.0 **** 0.06
24415 H 55.511002253152256 111.15881235264624 3.6672035768464184 H 0.0 **** 0.06
24416 C 75.12513198039767 56.19778357348315 72.23899286062581 C 0.0 **** -0.24
24417 H 75.33563939427967 55.130487226631445 72.16581581082599 H 0.0 **** 0.06
24418 H 75.34492491466335 56.541982305176035 73.25025498171394 H 0.0 **** 0.06
24419 H 74.07433806857574 56.37664793142983 72.01310272295919 H 0.0 **** 0.06
24420 H 75.74851190252261 56.73967798011408 71.52724454046805 H 0.0 **** 0.06
24421 C 97.7228048063348 94.43147724953218 25.490209531179488 C 0.0 **** -0.24
24422 H 97.01662607366853 94.33993679594444 24.664424633353555 H 0.0 **** 0.06
24423 H 98.74023845777305 94.3525558409014 25.10762768980363 H 0.0 **** 0.06
24424 H 97.5417707353721 93.63468715931207 26.211445906938735 H 0.0 **** 0.06
24425 H 97.589897334194 95.39789806218725 25.976295031485435 H 0.0 **** 0.06
24426 C 114.92717081452204 38.83289090857921 116.35576782708455 C 0.0 **** -0.24
24427 H 114.78991611430953 38.85359281426588 117.43771717009773 H 0.0 **** 0.06
24428 H 114.16866753455301 38.19076178145246 115.90674585829106 H 0.0 **** 0.06
24429 H 115.91835105352837 38.443038500837126 116.12247277544913 H 0.0 **** 0.06
24430 H 114.83084311830373 39.84315911497285 115.9586169629543 H 0.0 **** 0.06
24431 C 58.704687261979785 56.827303154728384 83.11331277006755 C 0.0 **** -0.24
24432 H 57.76416141642602 56.56861518650467 82.62546192061765 H 0.0 **** 0.06
24433 H 58.66761744492118 57.86491805702698 83.44558203945078 H 0.0 **** 0.06
24434 H 59.52684891532584 56.699348176063495 82.40903480047422 H 0.0 **** 0.06
24435 H 58.858058799307116 56.17505167656731 83.97284163442092 H 0.0 **** 0.06
24436 C 122.58444115537156 37.713375941538686 5.2941916667531075 C 0.0 **** -0.24
24437 H 122.98026602498913 37.19103604738501 4.422803433043711 H 0.0 **** 0.06
24438 H 121.97821642212688 38.55749064764822 4.965984987490984 H 0.0 **** 0.06
24439 H 123.41065358201263 38.07546478684142 5.906553842673759 H 0.0 **** 0.06
24440 H 121.97024947817565 37.029575283097444 5.8795888978637265 H 0.0 **** 0.06
24441 C 67.30904179942347 86.74304103631115 44.08785609401909 C 0.0 **** -0.24
24442 H 67.1374147167016 86.04119611884872 43.27159904203313 H 0.0 **** 0.06
24443 H 67.46734433934998 86.18959922571037 45.01446187566279 H 0.0 **** 0.06
24444 H 66.44216287042161 87.3936387259705 44.19637886400599 H 0.0 **** 0.06
24445 H 68.19137157387519 87.3452217127504 43.869417661503945 H 0.0 **** 0.06
24446 C 0.5034090424564397 78.01036341011132 9.54383786541186 C 0.0 **** -0.24
24447 H 1.3458796914180198 77.67763203300964 10.150964536925642 H 0.0 **** 0.06
24448 H -0.32646112273810957 78.2848370301985 10.194988726055726 H 0.0 **** 0.06
24449 H 0.1941092636613746 77.204898415455 8.879059403498843 H 0.0 **** 0.06
24450 H 0.8031807319746491 78.87570244284706 8.951734781681665 H 0.0 **** 0.06
24451 C 0.7372905476836848 69.48248738415623 17.631451701604533 C 0.0 **** -0.24
24452 H 1.8193890747505783 69.4179516940232 17.51642717451213 H 0.0 **** 0.06
24453 H 0.36856138432092855 68.57948313163837 18.117878289064237 H 0.0 **** 0.06
24454 H 0.27312222982267187 69.58257394183721 16.650462840821547 H 0.0 **** 0.06
24455 H 0.4881835267927048 70.35079658963355 18.241547210376893 H 0.0 **** 0.06
24456 C 120.76518417493712 34.36011474910353 27.355414333820022 C 0.0 **** -0.24
24457 H 120.15169242312086 33.90204651464627 28.131176581491843 H 0.0 **** 0.06
24458 H 121.81601538117908 34.299715164398606 27.640571189853688 H 0.0 **** 0.06
24459 H 120.47955040266437 35.40557950353734 27.23715391169077 H 0.0 **** 0.06
24460 H 120.61312232347565 33.832190034432756 26.412644196271174 H 0.0 **** 0.06
24461 C 19.13127664507499 113.2890101460739 17.35690972464615 C 0.0 **** -0.24
24462 H 18.890841165183133 113.980944328807 18.163869175785845 H 0.0 **** 0.06
24463 H 19.76841920569524 113.79005502689927 16.62631460097974 H 0.0 **** 0.06
24464 H 18.210942695153562 112.96163691093662 16.872205745422637 H 0.0 **** 0.06
24465 H 19.6549287828945 112.42362999957359 17.762810370264788 H 0.0 **** 0.06
24466 C 53.36938088102133 49.18147393491017 110.61148152946248 C 0.0 **** -0.24
24467 H 53.34279429320742 50.22457512676209 110.92909426011704 H 0.0 **** 0.06
24468 H 53.68936359190809 49.127125105694404 109.57148974417669 H 0.0 **** 0.06
24469 H 52.375471638142244 48.74684245276475 110.71035273204376 H 0.0 **** 0.06
24470 H 54.07118155657025 48.62989547293239 111.23796918350536 H 0.0 **** 0.06
24471 C 33.15596216093408 26.734092743087274 72.54163386099668 C 0.0 **** -0.24
24472 H 32.76664719340582 26.364779082077177 71.59282619457446 H 0.0 **** 0.06
24473 H 32.800441053490545 26.09746308303346 73.35187279446606 H 0.0 **** 0.06
24474 H 32.81024373361504 27.754951555586956 72.70267961410957 H 0.0 **** 0.06
24475 H 34.24562291106949 26.7187297141881 72.51715654450314 H 0.0 **** 0.06
24476 C 99.7282446585232 12.704053489400934 43.71922997498763 C 0.0 **** -0.24
24477 H 99.82722757283094 12.078832556533524 44.60698158007921 H 0.0 **** 0.06
24478 H 99.44319816616981 13.714208934099894 44.01617319349958 H 0.0 **** 0.06
24479 H 98.9619642390365 12.287568880441583 43.0654497407067 H 0.0 **** 0.06
24480 H 100.68010252343073 12.735844461937674 43.190484699433625 H 0.0 **** 0.06
24481 C 108.17656365416019 9.15460822825247 98.27609049394235 C 0.0 **** -0.24
24482 H 107.22241128780735 8.69808381961451 98.53810461455011 H 0.0 **** 0.06
24483 H 108.4461290606155 9.89255498157172 99.03159150860863 H 0.0 **** 0.06
24484 H 108.0910680059227 9.6417213528145 97.30491749852881 H 0.0 **** 0.06
24485 H 108.94629900805108 8.383649735144445 98.22965512542102 H 0.0 **** 0.06
24486 C 60.30804626722025 28.148300424831234 103.0769962557039 C 0.0 **** -0.24
24487 H 59.56958696466924 27.488577750517152 102.62011812926661 H 0.0 **** 0.06
24488 H 60.23695083515932 29.139048717600645 102.62725965531192 H 0.0 **** 0.06
24489 H 61.3070072624611 27.74460593584797 102.91183754347747 H 0.0 **** 0.06
24490 H 60.1167180355574 28.21889385096989 104.14777017460258 H 0.0 **** 0.06
24491 C 122.70657516271841 12.909968917909467 6.5381444423954065 C 0.0 **** -0.24
24492 H 123.74053704990354 13.252399337667825 6.567975357972415 H 0.0 **** 0.06
24493 H 122.2283471713971 13.27641034481887 5.628838955770817 H 0.0 **** 0.06
24494 H 122.17267772352298 13.290164490874602 7.408846766472152 H 0.0 **** 0.06
24495 H 122.68460598158407 11.819768873049867 6.546080237598574 H 0.0 **** 0.06
24496 C 31.542182355512693 84.47994688677232 27.21792059015548 C 0.0 **** -0.24
24497 H 31.493271236910488 83.40011286384305 27.082296757030797 H 0.0 **** 0.06
24498 H 32.450911387481625 84.73766178482131 27.762006329666107 H 0.0 **** 0.06
24499 H 30.672478909711202 84.81479770842452 27.78391316176066 H 0.0 **** 0.06
24500 H 31.550704069404787 84.96819806961724 26.243048850241564 H 0.0 **** 0.06
24501 C 93.34769799070175 85.79957075676828 42.008273099214705 C 0.0 **** -0.24
24502 H 92.69529621024165 86.67096006125092 42.06518802230207 H 0.0 **** 0.06
24503 H 93.17417035215892 85.2773398500434 41.06684131680646 H 0.0 **** 0.06
24504 H 93.13363398601095 85.13035916377154 42.84075858109452 H 0.0 **** 0.06
24505 H 94.38765923006244 86.12174778026218 42.05818579774569 H 0.0 **** 0.06
24506 C 60.7003129430455 20.964578607892037 79.0084213255559 C 0.0 **** -0.24
24507 H 61.33891970220415 21.78982710293198 79.32397647628613 H 0.0 **** 0.06
24508 H 60.11385356280999 21.26917903164437 78.14127213749964 H 0.0 **** 0.06
24509 H 60.03045641005207 20.69179906340142 79.823960569689 H 0.0 **** 0.06
24510 H 61.3196624674037 20.106056791768623 78.74492318271689 H 0.0 **** 0.06
24511 C 25.983234028422913 58.2692745234381 35.69648755779092 C 0.0 **** -0.24
24512 H 26.783113216340638 58.90385991325644 35.312472616517596 H 0.0 **** 0.06
24513 H 25.744058438039502 58.56610578648345 36.717506131911804 H 0.0 **** 0.06
24514 H 26.308347510641653 57.22938398702772 35.68626242532217 H 0.0 **** 0.06
24515 H 25.099586144100556 58.379654364125884 35.06807733794416 H 0.0 **** 0.06
24516 C 119.70024070086345 110.93598848659687 91.37276759982433 C 0.0 **** -0.24
24517 H 119.14485509651035 110.56273055957945 92.23346155383129 H 0.0 **** 0.06
24518 H 119.98449309145104 111.97469341447533 91.5470273600045 H 0.0 **** 0.06
24519 H 119.07467255589964 110.87477187533918 90.48244141722955 H 0.0 **** 0.06
24520 H 120.5969972101372 110.33295400603564 91.22889297408787 H 0.0 **** 0.06
24521 C 20.385776210125037 67.56473632595001 86.19999083509632 C 0.0 **** -0.24
24522 H 20.68115591399129 68.539732877512 86.58778623232263 H 0.0 **** 0.06
24523 H 19.469235904116346 67.23987447908144 86.69295268074615 H 0.0 **** 0.06
24524 H 21.178660491014313 66.8416817246816 86.39406124301675 H 0.0 **** 0.06
24525 H 20.216009726573688 67.63736274882852 85.1254521041001 H 0.0 **** 0.06
24526 C 116.2090240699865 103.43516338178466 31.941468860263484 C 0.0 **** -0.24
24527 H 116.70327364707893 103.85754524859766 32.816135426026534 H 0.0 **** 0.06
24528 H 116.80837209118135 103.63817620309163 31.052770618836405 H 0.0 **** 0.06
24529 H 115.22431058929874 103.88730246038858 31.82769599723764 H 0.0 **** 0.06
24530 H 116.1023998852381 102.35856306327474 32.06942070707379 H 0.0 **** 0.06
24531 C 51.59807013423841 69.80988842529581 113.75682203690826 C 0.0 **** -0.24
24532 H 52.59971577898483 70.12852378230235 113.46966672244133 H 0.0 **** 0.06
24533 H 50.88449131795687 70.12394106645496 112.99568481687123 H 0.0 **** 0.06
24534 H 51.3334395145431 70.26295417291425 114.71280939555662 H 0.0 **** 0.06
24535 H 51.57572498341864 68.7240438580414 113.85107698509131 H 0.0 **** 0.06
24536 C 43.93501732378354 17.492497443618532 68.58105320672308 C 0.0 **** -0.24
24537 H 43.521343104438415 16.667433140924658 68.00172323995426 H 0.0 **** 0.06
24538 H 44.94003211416691 17.717932837169997 68.22506748417159 H 0.0 **** 0.06
24539 H 43.97545325920322 17.211674951861255 69.63401874790928 H 0.0 **** 0.06
24540 H 43.30147624866589 18.3713562474002 68.46399517713317 H 0.0 **** 0.06
24541 C 37.03143922162981 27.75103249195456 23.638058933823714 C 0.0 **** -0.24
24542 H 37.15298645916129 26.90192982759055 22.9644509497194 H 0.0 **** 0.06
24543 H 37.76526419921515 28.518764144336785 23.389789328713036 H 0.0 **** 0.06
24544 H 37.18136434400626 27.42325719070857 24.66656829085906 H 0.0 **** 0.06
24545 H 36.02659957037983 28.15910721662459 23.529518635316506 H 0.0 **** 0.06
24546 C 84.75845024541297 102.41056122428898 76.6449517550866 C 0.0 **** -0.24
24547 H 85.14672721982966 102.59373259920366 77.64696121513026 H 0.0 **** 0.06
24548 H 85.45360481074006 101.77549766547008 76.09633888384667 H 0.0 **** 0.06
24549 H 84.64291384537712 103.36000026464964 76.12207934229218 H 0.0 **** 0.06
24550 H 83.78993016815208 101.91455365291901 76.71592434979982 H 0.0 **** 0.06
24551 C 117.96205227818746 34.12379943544204 23.92085822759128 C 0.0 **** -0.24
24552 H 117.22129064745698 33.409212720966025 24.278656637802953 H 0.0 **** 0.06
24553 H 118.0203263609819 34.07145033828728 22.83331583654808 H 0.0 **** 0.06
24554 H 118.93467375614678 33.8847520035533 24.348924110891687 H 0.0 **** 0.06
24555 H 117.66933406676114 35.130073011432316 24.22073695497599 H 0.0 **** 0.06
24556 C 71.50958511190396 94.79494164567765 59.226939242238075 C 0.0 **** -0.24
24557 H 71.81047887893533 95.7185241079211 58.733904756402836 H 0.0 **** 0.06
24558 H 72.20709922576259 93.99860476670159 58.96383006364297 H 0.0 **** 0.06
24559 H 70.50596610011468 94.52025216964108 58.901515971737496 H 0.0 **** 0.06
24560 H 71.51521668945867 94.94066025931176 60.30681888399437 H 0.0 **** 0.06
24561 C 29.36692204053739 49.77836730336679 108.63207740792748 C 0.0 **** -0.24
24562 H 29.613072238164648 48.71869241727268 108.56937264622002 H 0.0 **** 0.06
24563 H 29.43139050395726 50.22520206936464 107.63884413441144 H 0.0 **** 0.06
24564 H 30.069644113886 50.27515974215734 109.30087682279978 H 0.0 **** 0.06
24565 H 28.354045328007004 49.89387694735393 109.01799320089904 H 0.0 **** 0.06
24566 C 7.716426120572166 54.017682165803166 57.97465689605181 C 0.0 **** -0.24
24567 H 8.027237404577647 55.06161156648989 57.93465123023017 H 0.0 **** 0.06
24568 H 6.932216315063783 53.900883070319225 58.722749583005424 H 0.0 **** 0.06
24569 H 8.569764803335346 53.39501060211947 58.24180269689012 H 0.0 **** 0.06
24570 H 7.335874868926055 53.71522714437063 56.998641806561324 H 0.0 **** 0.06
24571 C 1.9004768411087412 115.9680723545695 52.67998698698091 C 0.0 **** -0.24
24572 H 2.766680697557831 116.1310699731483 52.03874104279521 H 0.0 **** 0.06
24573 H 2.0651613925035264 116.45460829690292 53.64163479639342 H 0.0 **** 0.06
24574 H 1.7565077715361497 114.89906840503178 52.833258348368304 H 0.0 **** 0.06
24575 H 1.0139475501194966 116.38961915548099 52.20558120098036 H 0.0 **** 0.06
24576 C 63.390432495537596 77.39740460868536 49.564602783038794 C 0.0 **** -0.24
24577 H 62.34130765031267 77.69413652422297 49.570167932217174 H 0.0 **** 0.06
24578 H 64.01976061895544 78.2879750344834 49.577876949787054 H 0.0 **** 0.06
24579 H 63.599143827746104 76.81800048698874 48.6655632285335 H 0.0 **** 0.06
24580 H 63.600629967093425 76.79060577427414 50.44485834718108 H 0.0 **** 0.06
24581 C 113.66214908549304 56.63519403349274 118.36217045372928 C 0.0 **** -0.24
24582 H 113.03517091257191 57.52357937513463 118.44290831671059 H 0.0 **** 0.06
24583 H 114.37560472413378 56.767313772549585 117.54874366833332 H 0.0 **** 0.06
24584 H 113.03581979307356 55.765711217220115 118.16008133536488 H 0.0 **** 0.06
24585 H 114.2005331355632 56.485424149977376 119.29807873427816 H 0.0 **** 0.06
24586 C 10.919553066827518 25.416128032534516 64.87704507549057 C 0.0 **** -0.24
24587 H 11.652029712557361 24.748486214360554 65.33244507164522 H 0.0 **** 0.06
24588 H 11.428868983512071 26.11669197657821 64.21606692924863 H 0.0 **** 0.06
24589 H 10.396698304323277 25.967235608596326 65.65903936658819 H 0.0 **** 0.06
24590 H 10.200975633763811 24.830440756452333 64.30364940251607 H 0.0 **** 0.06
24591 C 124.07468789753699 108.47482997018432 118.29929534680312 C 0.0 **** -0.24
24592 H 124.08766577614475 108.25465153179334 117.2311985296808 H 0.0 **** 0.06
24593 H 124.96439606016423 109.0469273413164 118.5621958688246 H 0.0 **** 0.06
24594 H 124.06392064539617 107.5416365887906 118.86248171785255 H 0.0 **** 0.06
24595 H 123.18470544660707 109.0553782980582 118.53937556307412 H 0.0 **** 0.06
24596 C 123.41686416820443 65.23523960270623 55.30771757611879 C 0.0 **** -0.24
24597 H 122.77145627068117 65.13099408846881 54.43543652287687 H 0.0 **** 0.06
24598 H 124.45899307576568 65.1595814716888 54.99863368666425 H 0.0 **** 0.06
24599 H 123.19082312716188 64.44423126958813 56.02244126106879 H 0.0 **** 0.06
24600 H 123.24500641273494 66.20649114481193 55.772488597620196 H 0.0 **** 0.06
24601 C 111.42120812750764 54.05179350051395 94.87430824551198 C 0.0 **** -0.24
24602 H 112.42317645515499 54.15828806987034 94.4577183715356 H 0.0 **** 0.06
24603 H 110.76715899412204 54.809855893831184 94.44395743366074 H 0.0 **** 0.06
24604 H 111.4635942857609 54.1784408700167 95.95623087676486 H 0.0 **** 0.06
24605 H 111.03398621884763 53.06073731109207 94.6386400319503 H 0.0 **** 0.06
24606 C 3.80278686874081 51.5705841929618 85.79008253953693 C 0.0 **** -0.24
24607 H 4.203082698369968 51.23242704639347 86.74642231046766 H 0.0 **** 0.06
24608 H 2.7424250810546624 51.32445808431697 85.73295522012896 H 0.0 **** 0.06
24609 H 4.335264605703003 51.07590498704519 84.97831126495996 H 0.0 **** 0.06
24610 H 3.9314992386599386 52.649983416466 85.7045243910479 H 0.0 **** 0.06
24611 C 34.86469398494677 26.572823451954463 53.114922639884355 C 0.0 **** -0.24
24612 H 34.051559985334904 25.847825188741723 53.076201390673134 H 0.0 **** 0.06
24613 H 34.747998403547626 27.204470372736893 53.99584774670092 H 0.0 **** 0.06
24614 H 34.840813050554914 27.19296448842769 52.21795854470787 H 0.0 **** 0.06
24615 H 35.81804553634029 26.047614021155 53.16715812092525 H 0.0 **** 0.06
24616 C 96.74240770401175 96.2770154266843 69.64395025638963 C 0.0 **** -0.24
24617 H 96.14052798525196 96.59186522611222 70.49703651870725 H 0.0 **** 0.06
24618 H 96.09111895566903 96.09005054056598 68.78971208989319 H 0.0 **** 0.06
24619 H 97.28159107426256 95.36462254578645 69.89711460350482 H 0.0 **** 0.06
24620 H 97.45454781706417 97.06262415244841 69.39255800240592 H 0.0 **** 0.06
24621 C 62.103171364702504 58.49834514224926 44.20642356171274 C 0.0 **** -0.24
24622 H 62.400534652525835 58.32823223996627 45.24136626654808 H 0.0 **** 0.06
24623 H 61.088306923186735 58.89376986044161 44.180770026665364 H 0.0 **** 0.06
24624 H 62.142021583910605 57.55646131960265 43.65825270503186 H 0.0 **** 0.06
24625 H 62.78444937219487 59.21412055093609 43.74651537321509 H 0.0 **** 0.06
24626 C 114.59702419911835 20.27647835629739 79.61602699961605 C 0.0 **** -0.24
24627 H 115.60664072249908 20.23387366867297 80.02518350678571 H 0.0 **** 0.06
24628 H 114.59513406247558 19.858350426821858 78.6096000777512 H 0.0 **** 0.06
24629 H 114.26400573780312 21.314313470526884 79.57943801745256 H 0.0 **** 0.06
24630 H 113.92321171285833 19.701043589419953 80.25107683027454 H 0.0 **** 0.06
24631 C 25.883699458209605 93.62312922243214 120.65368181064622 C 0.0 **** -0.24
24632 H 25.109217158781917 93.02162813609546 120.17908487437589 H 0.0 **** 0.06
24633 H 26.420846130364737 94.18987530457515 119.89226989080689 H 0.0 **** 0.06
24634 H 26.580095965961448 92.97084540239622 121.18047818626133 H 0.0 **** 0.06
24635 H 25.424365789681417 94.3123374081498 121.36336304004192 H 0.0 **** 0.06
24636 C 7.5725487323284995 11.711539183464083 79.58965551265246 C 0.0 **** -0.24
24637 H 6.657053188365239 11.289102848343731 80.00480392387419 H 0.0 **** 0.06
24638 H 7.485605895124991 11.769561524048044 78.50421177281856 H 0.0 **** 0.06
24639 H 8.417645620950168 11.07697254597312 79.85410601563024 H 0.0 **** 0.06
24640 H 7.726986403901378 12.711195265918235 79.99516556508618 H 0.0 **** 0.06
24641 C 71.77580597048836 2.0206746548554957 85.9164721868654 C 0.0 **** -0.24
24642 H 72.7143083785356 1.5348397907973261 86.18430319016113 H 0.0 **** 0.06
24643 H 71.05670734447988 1.8923706465539674 86.72525085396308 H 0.0 **** 0.06
24644 H 71.38125598279689 1.5707540616681346 85.00503841964469 H 0.0 **** 0.06
24645 H 71.95081815667038 3.0841582412146984 85.75048977543699 H 0.0 **** 0.06
24646 C 69.29797628262656 12.95687865724841 72.28049009439013 C 0.0 **** -0.24
24647 H 69.42635072625961 12.832158273015182 73.3556652110658 H 0.0 **** 0.06
24648 H 68.51654284677602 12.282914440986048 71.92783759114425 H 0.0 **** 0.06
24649 H 70.23391937500404 12.724969733393891 71.77355576569644 H 0.0 **** 0.06
24650 H 69.01333498259396 13.986541327831873 72.06468739331228 H 0.0 **** 0.06
24651 C 59.41674643564974 83.45135165796862 51.69310552064204 C 0.0 **** -0.24
24652 H 59.94462684720702 84.01447655144742 50.92249899789483 H 0.0 **** 0.06
24653 H 59.68289280832978 83.84418719680625 52.67549809486674 H 0.0 **** 0.06
24654 H 59.699708293622265 82.4010130296059 51.632980692573184 H 0.0 **** 0.06
24655 H 58.34182722475795 83.54848234384897 51.54182098970703 H 0.0 **** 0.06
24656 C 83.32573055608404 14.313384777906094 40.413910355377766 C 0.0 **** -0.24
24657 H 83.43263846699907 14.419094262437824 41.49378763759492 H 0.0 **** 0.06
24658 H 84.12154521339139 13.674022871585635 40.03171002141957 H 0.0 **** 0.06
24659 H 83.39105900851692 15.295312153710029 39.94468167230144 H 0.0 **** 0.06
24660 H 82.35801639344575 13.866789693005984 40.18721277239783 H 0.0 **** 0.06
24661 C 72.17295688291198 110.67557658694017 115.35979064138319 C 0.0 **** -0.24
24662 H 71.61096494280676 111.21330279056708 116.1242822159186 H 0.0 **** 0.06
24663 H 73.21400253015237 110.58468341452229 115.67252885771585 H 0.0 **** 0.06
24664 H 72.12238606546946 111.22451771927956 114.42007905211338 H 0.0 **** 0.06
24665 H 71.74463578198574 109.68309903634835 115.22545163677626 H 0.0 **** 0.06
24666 C 95.64421013446318 1.5031636407447166 109.48810930451123 C 0.0 **** -0.24
24667 H 95.83512620889135 0.501424709500208 109.10430358960309 H 0.0 **** 0.06
24668 H 95.62612688348776 1.4768918739591221 110.57774984605311 H 0.0 **** 0.06
24669 H 94.6818745827592 1.8574847746618843 109.11670170347452 H 0.0 **** 0.06
24670 H 96.43293455127846 2.1774568983466605 109.1535093389254 H 0.0 **** 0.06
24671 C 108.20707559983445 47.14495553998714 54.812132769762485 C 0.0 **** -0.24
24672 H 108.82220763930177 46.44733336272341 55.38112013065526 H 0.0 **** 0.06
24673 H 108.62192470331308 48.14867130903153 54.89908407757858 H 0.0 **** 0.06
24674 H 107.19023927941767 47.135662878416355 55.20518654994211 H 0.0 **** 0.06
24675 H 108.19472130241257 46.845841034044014 53.763291182150994 H 0.0 **** 0.06
24676 C 25.571679033150332 99.70796633521212 48.99118892199755 C 0.0 **** -0.24
24677 H 24.586443831376897 100.130416925367 48.791687421307245 H 0.0 **** 0.06
24678 H 26.093585356990417 100.33116672599249 49.71780560439885 H 0.0 **** 0.06
24679 H 26.14507957828863 99.6712415894346 48.06492232151112 H 0.0 **** 0.06
24680 H 25.460022003928657 98.6991506578249 49.389651453897784 H 0.0 **** 0.06
24681 C 118.72134381844177 27.28620747044573 103.19684706317372 C 0.0 **** -0.24
24682 H 119.27240166031575 27.8622735777177 102.4547131774856 H 0.0 **** 0.06
24683 H 118.3682572042309 27.951952043957817 103.98428576197291 H 0.0 **** 0.06
24684 H 119.37522168305415 26.527991384539177 103.62716181584874 H 0.0 **** 0.06
24685 H 117.86848119112003 26.801782387182925 102.72069538555783 H 0.0 **** 0.06
24686 C 57.446767381545456 18.68853774951927 2.710166161218231 C 0.0 **** -0.24
24687 H 57.58687410652202 17.796762414516166 3.320532878099952 H 0.0 **** 0.06
24688 H 56.69941761326572 18.488913160332373 1.9416695114131635 H 0.0 **** 0.06
24689 H 58.3909103147586 18.957364546528936 2.2374390405860822 H 0.0 **** 0.06
24690 H 57.10896227923665 19.511244170575935 3.3406196346963295 H 0.0 **** 0.06
24691 C 104.62402108193379 43.70355023930213 64.25197107150443 C 0.0 **** -0.24
24692 H 104.08793507597429 43.91100868370489 65.17824614499173 H 0.0 **** 0.06
24693 H 104.23743379456596 42.787184946982904 63.80530938923637 H 0.0 **** 0.06
24694 H 105.68589802295995 43.58302085979946 64.46740496006976 H 0.0 **** 0.06
24695 H 104.48619365266592 44.5330258626081 63.558949820480365 H 0.0 **** 0.06
24696 C 57.27161834686865 30.48461725089848 29.436472951026957 C 0.0 **** -0.24
24697 H 57.24431916673316 29.850993300431867 28.550569403922218 H 0.0 **** 0.06
24698 H 56.25667876118197 30.783728780315187 29.69956927235291 H 0.0 **** 0.06
24699 H 57.870585984982554 31.371696501931723 29.23006585997922 H 0.0 **** 0.06
24700 H 57.71490479255786 29.932783815633528 30.265007597955304 H 0.0 **** 0.06
24701 C 108.39772989553869 109.57639510736155 21.334766198124726 C 0.0 **** -0.24
24702 H 109.00882768503446 110.42215117866995 21.652221616553675 H 0.0 **** 0.06
24703 H 108.12451290391063 109.69926545711311 20.28660873165444 H 0.0 **** 0.06
24704 H 107.49490879871358 109.53237735649752 21.943932195230843 H 0.0 **** 0.06
24705 H 108.96512768005265 108.65366682289537 21.456954514713004 H 0.0 **** 0.06
24706 C 57.17520026898336 72.94787211405293 93.48852202066925 C 0.0 **** -0.24
24707 H 56.48350630938998 72.13108426811488 93.69692988300152 H 0.0 **** 0.06
24708 H 56.66677467047617 73.9010705515214 93.63374550526271 H 0.0 **** 0.06
24709 H 57.52259006541357 72.87452190378403 92.45750367246504 H 0.0 **** 0.06
24710 H 58.02716977514956 72.88284791985569 94.16465771380675 H 0.0 **** 0.06
24711 C 55.90444516550036 36.474211388767955 97.71821847238007 C 0.0 **** -0.24
24712 H 55.61482946383528 36.24323563686556 96.69302060719801 H 0.0 **** 0.06
24713 H 55.165587790890754 36.062656122423476 98.40487827126252 H 0.0 **** 0.06
24714 H 55.95800422825316 37.55497745557926 97.84517825288252 H 0.0 **** 0.06
24715 H 56.880237912204024 36.03493986544137 97.92731603710223 H 0.0 **** 0.06
24716 C 52.821194626329145 50.004075268468945 85.28816289514936 C 0.0 **** -0.24
24717 H 53.71748161355248 50.33753213270626 85.81133578276071 H 0.0 **** 0.06
24718 H 53.071684070858254 49.168529636881885 84.63363687868268 H 0.0 **** 0.06
24719 H 52.421891161867464 50.82497451928425 84.6932731384429 H 0.0 **** 0.06
24720 H 52.07430346290688 49.68467297907667 86.01496374453382 H 0.0 **** 0.06
24721 C 40.42386583522105 60.61254384777402 78.61683544536956 C 0.0 **** -0.24
24722 H 41.258767789009454 60.007366407391686 78.97229962580184 H 0.0 **** 0.06
24723 H 39.87469792052249 60.05983162475333 77.85382524283924 H 0.0 **** 0.06
24724 H 40.80389131169076 61.540913246765214 78.19020725367557 H 0.0 **** 0.06
24725 H 39.75920101973438 60.83959961645836 79.44969498232908 H 0.0 **** 0.06
24726 C 40.86588481437106 68.51620133914057 73.63135364214969 C 0.0 **** -0.24
24727 H 41.623286780385335 69.30012590985277 73.62632942884183 H 0.0 **** 0.06
24728 H 40.85123448811497 68.01807811055275 72.66165917818638 H 0.0 **** 0.06
24729 H 39.88831116758827 68.95638985881013 73.82912513211943 H 0.0 **** 0.06
24730 H 41.100290079068806 67.7897537292807 74.41020267251399 H 0.0 **** 0.06
24731 C 96.7041584400861 116.01876958853966 80.05609558215949 C 0.0 **** -0.24
24732 H 96.61430369187481 116.2258439758119 81.12273191178829 H 0.0 **** 0.06
24733 H 97.609094724965 116.48893239165558 79.66995827815711 H 0.0 **** 0.06
24734 H 95.83495174104858 116.41908490627021 79.53447018485755 H 0.0 **** 0.06
24735 H 96.75868794220207 114.94138273266032 79.8994149738584 H 0.0 **** 0.06
24736 C 92.17591056382805 45.949371320319784 98.54756141109567 C 0.0 **** -0.24
24737 H 93.25671057564615 45.81115754606415 98.58138460992338 H 0.0 **** 0.06
24738 H 91.78436995421625 46.00094271950721 99.56289238289247 H 0.0 **** 0.06
24739 H 91.71877300057449 45.10979982206891 98.02344531823296 H 0.0 **** 0.06
24740 H 91.94503149674652 46.8748486818445 98.02054510427878 H 0.0 **** 0.06
24741 C 41.74447549448425 62.45903806025825 6.887606220569495 C 0.0 **** -0.24
24742 H 41.09426942005027 61.584391782766886 6.869727276622569 H 0.0 **** 0.06
24743 H 42.78316198498686 62.13683045349762 6.963930277448895 H 0.0 **** 0.06
24744 H 41.493030266863684 63.08186146220902 7.746063565751342 H 0.0 **** 0.06
24745 H 41.60785632744299 63.031726699191495 5.970541005545158 H 0.0 **** 0.06
24746 C 103.1923719926516 23.72717772321988 68.29568650522734 C 0.0 **** -0.24
24747 H 102.83951610306474 24.739365128901895 68.4924454055247 H 0.0 **** 0.06
24748 H 104.07101442530944 23.524279096321706 68.90881975663095 H 0.0 **** 0.06
24749 H 103.45428080491371 23.631773875567383 67.24185559122591 H 0.0 **** 0.06
24750 H 102.40513143329224 23.014571492703674 68.54002300186866 H 0.0 **** 0.06
24751 C 16.83055260903312 106.10471645459322 62.264440063410305 C 0.0 **** -0.24
24752 H 16.332653178065044 106.5290462346394 61.391493786172234 H 0.0 **** 0.06
24753 H 17.56474575728967 105.36662556977805 61.94071332455701 H 0.0 **** 0.06
24754 H 16.091129529893095 105.6264414300648 62.907140804367145 H 0.0 **** 0.06
24755 H 17.332914257322415 106.89956778204115 62.81683567589205 H 0.0 **** 0.06
24756 C 44.32110027774792 41.22493486554848 32.32057785927026 C 0.0 **** -0.24
24757 H 43.56582045889388 40.922853571834196 33.04668049556278 H 0.0 **** 0.06
24758 H 43.86151686141949 41.85461364101016 31.5601507980478 H 0.0 **** 0.06
24759 H 44.74815898752786 40.338491167238686 31.85044256657011 H 0.0 **** 0.06
24760 H 45.108500345101675 41.782459441598235 32.82770031283462 H 0.0 **** 0.06
24761 C 51.48180051242315 7.620741776075363 85.39915074955525 C 0.0 **** -0.24
24762 H 51.2025952602728 8.512456338403545 84.8395909471183 H 0.0 **** 0.06
24763 H 51.44140808795254 7.835225015071831 86.46754915526094 H 0.0 **** 0.06
24764 H 52.494462179333254 7.32224491308714 85.12639311846272 H 0.0 **** 0.06
24765 H 50.78949429100308 6.812298098599452 85.1640047812075 H 0.0 **** 0.06
24766 C 114.0394276640265 21.23084212339029 93.81139103317845 C 0.0 **** -0.24
24767 H 113.80281239585844 21.540212570342305 94.82952504142347 H 0.0 **** 0.06
24768 H 113.7446541584477 20.19193027575875 93.66983057968135 H 0.0 **** 0.06
24769 H 115.11162824029014 21.331654785222526 93.6422300030754 H 0.0 **** 0.06
24770 H 113.49893893654502 21.86199554901026 93.10571545965232 H 0.0 **** 0.06
24771 C 42.539859725450015 79.79631134273156 56.621636665181086 C 0.0 **** -0.24
24772 H 42.22708533985176 79.32379982588141 57.55260376487993 H 0.0 **** 0.06
24773 H 42.87458470571224 79.03075045214428 55.920695519771755 H 0.0 **** 0.06
24774 H 43.35848951223118 80.48788638258847 56.82304915614242 H 0.0 **** 0.06
24775 H 41.70057979547537 80.34166674460029 56.19161420312372 H 0.0 **** 0.06
24776 C 29.81307746528492 7.920892086033803 108.1144168210406 C 0.0 **** -0.24
24777 H 30.20825836673211 8.597671366415 108.87247988460712 H 0.0 **** 0.06
24778 H 28.92976046198251 7.415648109510187 108.50348395935009 H 0.0 **** 0.06
24779 H 30.57215015413324 7.1819010040675835 107.8566250913149 H 0.0 **** 0.06
24780 H 29.54390314492784 8.489851276964714 107.22428180138334 H 0.0 **** 0.06
24781 C 9.317809043219992 29.750449136628475 33.86056511616536 C 0.0 **** -0.24
24782 H 8.422147384622857 30.364184210475656 33.76601277930308 H 0.0 **** 0.06
24783 H 9.19733070815052 28.840545900816863 33.27197542816333 H 0.0 **** 0.06
24784 H 9.47028381522675 29.48860242409168 34.907815073824025 H 0.0 **** 0.06
24785 H 10.180573540199866 30.307366556128642 33.4954649896184 H 0.0 **** 0.06
24786 C 23.82028683562406 120.80850508744018 48.778202294372846 C 0.0 **** -0.24
24787 H 22.743485454057343 120.9170587693176 48.91012507978209 H 0.0 **** 0.06
24788 H 24.324378431797243 121.0113932567779 49.723543399731355 H 0.0 **** 0.06
24789 H 24.166113173871466 121.51463747744154 48.02263763668483 H 0.0 **** 0.06
24790 H 24.046526287077697 119.79211712451897 48.455417623950325 H 0.0 **** 0.06
24791 C 52.222757771205664 89.74408536284292 94.96429872668395 C 0.0 **** -0.24
24792 H 52.44769767204197 89.57063507298679 96.0162833772041 H 0.0 **** 0.06
24793 H 51.150524155657166 89.63806697763127 94.79915367571635 H 0.0 **** 0.06
24794 H 52.757599685295105 89.01532482724312 94.35380957102433 H 0.0 **** 0.06
24795 H 52.53634460939101 90.75026484357485 94.68636375576 H 0.0 **** 0.06
24796 C 52.74671805291871 41.54254806279209 109.08614020796318 C 0.0 **** -0.24
24797 H 52.2611382685314 42.078436705569914 108.26971481741435 H 0.0 **** 0.06
24798 H 52.92610667120232 40.510014122022255 108.78688266178426 H 0.0 **** 0.06
24799 H 52.101525440542275 41.55897021453984 109.9649971687108 H 0.0 **** 0.06
24800 H 53.69529356530575 42.02375107008771 109.32257376008482 H 0.0 **** 0.06
24801 C 76.66574228944374 25.267759668077915 3.25061762835616 C 0.0 **** -0.24
24802 H 76.68517365993253 26.193768453576595 2.6760370393395103 H 0.0 **** 0.06
24803 H 77.12784310056529 25.43527588213321 4.223882189075056 H 0.0 **** 0.06
24804 H 77.21758263474266 24.495292598586794 2.7144351964483597 H 0.0 **** 0.06
24805 H 75.63318314925114 24.94707566329612 3.389210935208718 H 0.0 **** 0.06
24806 C 76.45583897162807 75.25905300814873 68.99687221913504 C 0.0 **** -0.24
24807 H 75.7921800801102 74.46688755151231 69.3444258229049 H 0.0 **** 0.06
24808 H 76.9145677313418 74.96023308563844 68.05390226748958 H 0.0 **** 0.06
24809 H 77.23429885238014 75.43351837798778 69.73966408762104 H 0.0 **** 0.06
24810 H 75.88290430769813 76.17439488623106 68.8476916642434 H 0.0 **** 0.06
24811 C 119.0384189010496 123.70603596658736 2.3787012741485114 C 0.0 **** -0.24
24812 H 119.08690149391913 122.68954277026464 1.9885260400337188 H 0.0 **** 0.06
24813 H 118.0835062850791 124.15490694667741 2.105370991354789 H 0.0 **** 0.06
24814 H 119.85186781510353 124.29607291636569 1.9550858435835607 H 0.0 **** 0.06
24815 H 119.1334186040987 123.68276249011916 3.4647321938292066 H 0.0 **** 0.06
24816 C 44.305319903743964 44.660798688857 13.259618617880221 C 0.0 **** -0.24
24817 H 43.52436081051928 44.03773919688217 12.823702946767241 H 0.0 **** 0.06
24818 H 45.09355047813735 44.822806592601324 12.524315473362634 H 0.0 **** 0.06
24819 H 44.72166740933327 44.16066436615458 14.13462557516587 H 0.0 **** 0.06
24820 H 43.88077330349508 45.620109109731374 13.556619360481989 H 0.0 **** 0.06
24821 C 19.098077036032382 38.57731757846136 18.91214304664814 C 0.0 **** -0.24
24822 H 19.983182032869657 37.94135561187562 18.942953215665852 H 0.0 **** 0.06
24823 H 18.21040015508581 37.97313556762725 19.09744690304865 H 0.0 **** 0.06
24824 H 19.021727187339838 39.04496414689726 17.93019033412901 H 0.0 **** 0.06
24825 H 19.17991528477814 39.34951878611822 19.6773440174035 H 0.0 **** 0.06
24826 C 78.04602255081252 113.11340623888978 17.875570064275337 C 0.0 **** -0.24
24827 H 78.72830539493188 113.52832980456193 17.133090227739075 H 0.0 **** 0.06
24828 H 78.24583373720228 112.04861214999478 17.997220246984256 H 0.0 **** 0.06
24829 H 77.01835839562091 113.25457390695163 17.54144021343646 H 0.0 **** 0.06
24830 H 78.19189632892973 113.62270808020959 18.82743933490343 H 0.0 **** 0.06
24831 C 110.67276226374929 102.34107235280933 16.727916741250624 C 0.0 **** -0.24
24832 H 109.60733866553912 102.53677537746589 16.845486056362773 H 0.0 **** 0.06
24833 H 110.90409995108726 101.34715315585731 17.112085009524122 H 0.0 **** 0.06
24834 H 111.24209210053996 103.08682395733985 17.28369443568448 H 0.0 **** 0.06
24835 H 110.93815900946205 102.39360615603292 15.671660373102128 H 0.0 **** 0.06
24836 C 55.27768501953925 104.97343584240184 106.95758065363141 C 0.0 **** -0.24
24837 H 54.20846589465863 105.05159413050103 106.75786707827027 H 0.0 **** 0.06
24838 H 55.73330649521556 105.96188406489108 106.88892968531005 H 0.0 **** 0.06
24839 H 55.7357561459786 104.30955748129975 106.22523783307693 H 0.0 **** 0.06
24840 H 55.431043217632066 104.57074140913778 107.95883345297227 H 0.0 **** 0.06
24841 C 6.04540747279259 65.89618573949397 85.85590485430508 C 0.0 **** -0.24
24842 H 5.121683544308638 65.4545147815621 85.48196825616091 H 0.0 **** 0.06
24843 H 6.0551407071099845 66.96318269928082 85.63089036956345 H 0.0 **** 0.06
24844 H 6.897819086041892 65.41535196015835 85.37516160766273 H 0.0 **** 0.06
24845 H 6.107253927719853 65.7509865725942 86.93404069044111 H 0.0 **** 0.06
24846 C 48.1937626742351 75.4584007955861 6.69541093547025 C 0.0 **** -0.24
24847 H 47.60819572384119 74.98947835178967 5.904170874045207 H 0.0 **** 0.06
24848 H 49.24333683183232 75.48691463030849 6.401188564867198 H 0.0 **** 0.06
24849 H 48.088884520148696 74.8828531897164 7.6146775945604475 H 0.0 **** 0.06
24850 H 47.8340471413475 76.47464211439615 6.858512311293595 H 0.0 **** 0.06
24851 C 57.55639876664543 48.450445857607974 106.35355242454011 C 0.0 **** -0.24
24852 H 56.89926803442148 48.90871609809264 105.61478231935746 H 0.0 **** 0.06
24853 H 57.06695525628646 47.57441286860123 106.78162843870905 H 0.0 **** 0.06
24854 H 57.772586377138225 49.168882355343015 107.144006472277 H 0.0 **** 0.06
24855 H 58.487868855584736 48.14784566066376 105.87345307348357 H 0.0 **** 0.06
24856 C 10.01664545651687 78.71605255799848 89.94325899434236 C 0.0 **** -0.24
24857 H 9.678166151270261 78.34734502037004 90.91122086571495 H 0.0 **** 0.06
24858 H 9.345730370050802 78.3568357584068 89.16216616547804 H 0.0 **** 0.06
24859 H 11.026505592335837 78.35350103366986 89.74939397645494 H 0.0 **** 0.06
24860 H 10.017741683560047 79.8058025029778 89.95043786896531 H 0.0 **** 0.06
24861 C 95.68287021580147 34.7899939152602 84.18019167812247 C 0.0 **** -0.24
24862 H 96.73015062021534 34.61202732168379 83.93458958129384 H 0.0 **** 0.06
24863 H 95.5212221254975 35.85898158584956 84.32583874474278 H 0.0 **** 0.06
24864 H 95.429538925457 34.25657943585597 85.09595852426719 H 0.0 **** 0.06
24865 H 95.05363181610551 34.43439220815245 83.36515542560636 H 0.0 **** 0.06
24866 C 62.478285858052004 37.13274328735224 30.969781747255958 C 0.0 **** -0.24
24867 H 62.511744975790805 36.34692949869907 31.724969755990138 H 0.0 **** 0.06
24868 H 63.49196157656746 37.46359863186319 30.746161696345773 H 0.0 **** 0.06
24869 H 61.89663546778144 37.973351067525115 31.34825379988242 H 0.0 **** 0.06
24870 H 62.012634420766915 36.746584397565385 30.06382993695668 H 0.0 **** 0.06
24871 C 56.533525080050595 2.292127196642852 120.15405078420656 C 0.0 **** -0.24
24872 H 57.38421793370691 1.9000399276931432 119.5981930169363 H 0.0 **** 0.06
24873 H 56.38395611747217 1.6982866716126068 121.05573158154465 H 0.0 **** 0.06
24874 H 55.63879874206947 2.2400667245456702 119.5326078938442 H 0.0 **** 0.06
24875 H 56.725776290274496 3.328984824182612 120.4287240556628 H 0.0 **** 0.06
24876 C 123.65503292486297 25.707694688060066 3.388102046189715 C 0.0 **** -0.24
24877 H 124.5575534191002 26.28442020348274 3.590937336213244 H 0.0 **** 0.06
24878 H 122.82264031988545 26.386748952807807 3.205689001269093 H 0.0 **** 0.06
24879 H 123.42814110267427 25.0753260095985 4.24671237007982 H 0.0 **** 0.06
24880 H 123.81413583084762 25.082715220823502 2.5093337944422274 H 0.0 **** 0.06
24881 C 3.3411779672661908 33.33001643398657 122.45089962545366 C 0.0 **** -0.24
24882 H 3.0296345998485776 33.124474133626734 121.42619924718994 H 0.0 **** 0.06
24883 H 3.460659929124205 32.388801249815145 122.9890109819471 H 0.0 **** 0.06
24884 H 2.5840419413645463 33.938812422399906 122.94493826998759 H 0.0 **** 0.06
24885 H 4.290245826369784 33.865895597174784 122.44034390364038 H 0.0 **** 0.06
24886 C 16.007639519887533 46.47746120604711 93.81504257491662 C 0.0 **** -0.24
24887 H 15.362362889579089 47.10429672771427 93.19916837249687 H 0.0 **** 0.06
24888 H 15.462181961137503 46.15583753351987 94.70224828487964 H 0.0 **** 0.06
24889 H 16.888038183711757 47.046167049735516 94.11471835898548 H 0.0 **** 0.06
24890 H 16.318160071713834 45.60352279365705 93.24263334068544 H 0.0 **** 0.06
24891 C 103.78703519976193 44.909378310326005 24.408925965174234 C 0.0 **** -0.24
24892 H 104.23386953110116 45.232047145728814 23.46830615163725 H 0.0 **** 0.06
24893 H 102.91399591910579 45.52464617234371 24.626056268190155 H 0.0 **** 0.06
24894 H 104.51622212109021 45.01600320377253 25.21243284459561 H 0.0 **** 0.06
24895 H 103.48555567612993 43.865073901631476 24.32808599851785 H 0.0 **** 0.06
24896 C 61.63621598793509 33.92234396640018 27.02541591139895 C 0.0 **** -0.24
24897 H 60.83519743599615 34.1644185829108 27.722159577894644 H 0.0 **** 0.06
24898 H 61.237641715334576 33.89077777984647 26.01097080299614 H 0.0 **** 0.06
24899 H 62.05892371140183 32.95091083652434 27.2797788531185 H 0.0 **** 0.06
24900 H 62.4135084964619 34.68422161227441 27.086534899271925 H 0.0 **** 0.06
24901 C 86.89267431701205 38.64052137911106 51.639889691814744 C 0.0 **** -0.24
24902 H 87.83316667318599 38.310277726918315 52.07907630111073 H 0.0 **** 0.06
24903 H 86.26421295255119 39.07891704797964 52.41492081585504 H 0.0 **** 0.06
24904 H 86.379974445286 37.788067192327446 51.194128078892646 H 0.0 **** 0.06
24905 H 87.09334479786224 39.38554363936903 50.86931656036319 H 0.0 **** 0.06
24906 C 76.60352751643553 119.72331884167828 0.7849266793104164 C 0.0 **** -0.24
24907 H 77.67560683087721 119.81690775053869 0.9564047694406099 H 0.0 **** 0.06
24908 H 76.12269493240763 119.35193666088514 1.6910001397820906 H 0.0 **** 0.06
24909 H 76.4256614047912 119.02640690416662 -0.033297028234017034 H 0.0 **** 0.06
24910 H 76.1900858856429 120.69936073145347 0.5284641633655838 H 0.0 **** 0.06
24911 C 28.074831384729634 51.97039281849962 42.7403506553678 C 0.0 **** -0.24
24912 H 27.23355442640718 51.47968057136492 43.23020093680346 H 0.0 **** 0.06
24913 H 27.86821829287817 53.036411031363315 42.645619959260095 H 0.0 **** 0.06
24914 H 28.221424045861966 51.53888182769816 41.75011958565305 H 0.0 **** 0.06
24915 H 28.97668605232161 51.82629758073634 43.33672680970892 H 0.0 **** 0.06
24916 C 72.54141153129837 106.53916389911208 72.23783149001213 C 0.0 **** -0.24
24917 H 71.96556997325888 105.84960959250753 71.62050008037406 H 0.0 **** 0.06
24918 H 71.86093889549389 107.19586019666284 72.77968447818432 H 0.0 **** 0.06
24919 H 73.19364542926553 107.13713064187519 71.60176514556987 H 0.0 **** 0.06
24920 H 73.1444853373267 105.97343875263212 72.94747697142348 H 0.0 **** 0.06
24921 C 52.398255261974214 123.11513806913518 61.49523334501234 C 0.0 **** -0.24
24922 H 51.472344306263295 123.67859302280353 61.3797771826211 H 0.0 **** 0.06
24923 H 53.23026540828076 123.80809321154274 61.62924870482175 H 0.0 **** 0.06
24924 H 52.56865551923093 122.51039138247297 60.60441242257403 H 0.0 **** 0.06
24925 H 52.32187890353106 122.4653616498695 62.36630159389247 H 0.0 **** 0.06
24926 C 40.22678414651077 23.08919388933782 85.35272765615821 C 0.0 **** -0.24
24927 H 41.07030445050958 22.992275693365855 84.66937851005866 H 0.0 **** 0.06
24928 H 39.55833656666408 23.872971417444887 84.99563613354519 H 0.0 **** 0.06
24929 H 40.59253243474885 23.34890926968285 86.3463517500332 H 0.0 **** 0.06
24930 H 39.68705063970404 22.143835957269232 85.3989637674681 H 0.0 **** 0.06
24931 C 68.80720382564064 50.07175613150429 84.11795383531177 C 0.0 **** -0.24
24932 H 68.62130584310191 49.30777234815778 84.87127468214481 H 0.0 **** 0.06
24933 H 69.22402682269299 49.606666859816414 83.22334252998587 H 0.0 **** 0.06
24934 H 69.51282797920621 50.80480272530764 84.50953010972239 H 0.0 **** 0.06
24935 H 67.87014843875889 50.568521116413024 83.86480466333575 H 0.0 **** 0.06
24936 C 84.09049773299701 44.94490064008744 63.96984390835898 C 0.0 **** -0.24
24937 H 83.00380731203043 45.00956925578994 64.00916981516745 H 0.0 **** 0.06
24938 H 84.41102110059133 43.97394596065942 64.34778107285463 H 0.0 **** 0.06
24939 H 84.52364339701901 45.73502461326319 64.58381108077126 H 0.0 **** 0.06
24940 H 84.42393653824311 45.062612319790276 62.93796197583862 H 0.0 **** 0.06
24941 C 85.49306472144822 66.91476150172963 72.13173117845056 C 0.0 **** -0.24
24942 H 85.32051092885261 67.50522854561319 73.03175983684818 H 0.0 **** 0.06
24943 H 86.33798312662658 66.24458199927176 72.29372220499599 H 0.0 **** 0.06
24944 H 85.7115063910836 67.58038899505567 71.29732844277888 H 0.0 **** 0.06
24945 H 84.6023346094493 66.3292110890639 71.9054785444213 H 0.0 **** 0.06
24946 C 35.99579329396079 107.09504131230793 107.82862897305998 C 0.0 **** -0.24
24947 H 36.83147103660502 106.44079589404592 107.58196461846691 H 0.0 **** 0.06
24948 H 35.08077550795636 106.69820544354548 107.3862110952953 H 0.0 **** 0.06
24949 H 36.18679351607514 108.09266106553034 107.4345295017794 H 0.0 **** 0.06
24950 H 35.88240998901895 107.14772489186045 108.91115811419377 H 0.0 **** 0.06
24951 C 93.58218615236098 28.033229565925588 106.69995212022512 C 0.0 **** -0.24
24952 H 92.68472379574277 28.560866756719996 107.02580196772173 H 0.0 **** 0.06
24953 H 93.47317701307918 26.969852473888295 106.91093748625504 H 0.0 **** 0.06
24954 H 94.44724206953614 28.424648168050965 107.23571089998113 H 0.0 **** 0.06
24955 H 93.7199484901198 28.18025391778196 105.628519383184 H 0.0 **** 0.06
24956 C 69.8571586669678 109.07400699260134 122.89009866131762 C 0.0 **** -0.24
24957 H 69.86979008188221 108.33412683965331 123.68965756969573 H 0.0 **** 0.06
24958 H 69.09147313840394 109.82168212738046 123.0992883412787 H 0.0 **** 0.06
24959 H 69.63496876336866 108.58223128533605 121.94341076582498 H 0.0 **** 0.06
24960 H 70.83183278021542 109.55928182536489 122.82806252244434 H 0.0 **** 0.06
24961 C 57.9654289552644 9.052155187189499 86.42473276461926 C 0.0 **** -0.24
24962 H 58.30595163314547 8.512469367240186 87.30843703143873 H 0.0 **** 0.06
24963 H 56.88698632349377 9.202579922610767 86.48512863344803 H 0.0 **** 0.06
24964 H 58.20193146081867 8.473573469964009 85.5315119120015 H 0.0 **** 0.06
24965 H 58.465181477085224 10.019800537087605 86.37428844519347 H 0.0 **** 0.06
24966 C 116.05616788788191 6.26271081860375 57.01475962599224 C 0.0 **** -0.24
24967 H 116.524969436442 5.430221855089229 57.53979387313001 H 0.0 **** 0.06
24968 H 116.49200916307295 6.35618886428524 56.021068608396064 H 0.0 **** 0.06
24969 H 116.22299552744569 7.183347845240931 57.573864004015746 H 0.0 **** 0.06
24970 H 114.98554857987142 6.080151480999717 56.927834144118634 H 0.0 **** 0.06
24971 C 70.66000511568456 71.58676563958227 77.49620885636963 C 0.0 **** -0.24
24972 H 69.67029937925963 71.96354353158497 77.23878379275803 H 0.0 **** 0.06
24973 H 71.35679644486885 71.81160958078831 76.68719718450913 H 0.0 **** 0.06
24974 H 70.61143764910236 70.50746753599535 77.6438522179404 H 0.0 **** 0.06
24975 H 71.00296613750692 72.0639241851288 78.41426450195772 H 0.0 **** 0.06
24976 C 32.799788083702026 116.55994339076726 40.001497688354135 C 0.0 **** -0.24
24977 H 32.78450588911352 117.64994780243421 40.017168368496044 H 0.0 **** 0.06
24978 H 31.79310288280061 116.18527609808382 39.8102749019848 H 0.0 **** 0.06
24979 H 33.14838403933322 116.18805964609481 40.96578402083318 H 0.0 **** 0.06
24980 H 33.47109604157754 116.2163016083732 39.21587911536125 H 0.0 **** 0.06
24981 C 49.66931033683392 104.21792356993436 29.120441585242467 C 0.0 **** -0.24
24982 H 48.95820719427866 104.5408126119803 28.359245972537103 H 0.0 **** 0.06
24983 H 50.66589682462029 104.1531673265393 28.681690170741952 H 0.0 **** 0.06
24984 H 49.37479713317305 103.23963554476137 29.499655498739955 H 0.0 **** 0.06
24985 H 49.677864377893286 104.93755671141473 29.938092238687275 H 0.0 **** 0.06
24986 C 21.478647130178636 22.223007010688775 70.01897271434412 C 0.0 **** -0.24
24987 H 20.662558796010593 22.082518295144553 69.30986941898196 H 0.0 **** 0.06
24988 H 21.34584132957668 23.16944028648919 70.54232282291532 H 0.0 **** 0.06
24989 H 22.42751595267655 22.233491694417182 69.48205859618095 H 0.0 **** 0.06
24990 H 21.47847926926969 21.405135149964792 70.73994243007074 H 0.0 **** 0.06
24991 C 111.25611267017858 113.79385408296545 20.796284865421825 C 0.0 **** -0.24
24992 H 111.02456744316788 114.56593153428466 20.062846456454963 H 0.0 **** 0.06
24993 H 112.28943448966291 113.4701752116854 20.668094544290028 H 0.0 **** 0.06
24994 H 110.58802883098764 112.94470047004987 20.652184775964457 H 0.0 **** 0.06
24995 H 111.12266952764152 114.1952317123503 21.800768624613625 H 0.0 **** 0.06
24996 C 122.05714599902532 110.13077744268165 0.1365351549338243 C 0.0 **** -0.24
24997 H 122.97138430989102 109.92555163683102 -0.4193023414590016 H 0.0 **** 0.06
24998 H 121.67151266010804 111.11039296013499 -0.14686227550367903 H 0.0 **** 0.06
24999 H 122.27209823679738 110.11994109697352 1.2057193719172972 H 0.0 **** 0.06
25000 H 121.31359058344236 109.36714136356832 -0.09168401494173395 H 0.0 **** 0.06
25001 C 61.08902394187385 24.81321374337915 22.26180200972005 C 0.0 **** -0.24
25002 H 60.010880832620046 24.96955582563578 22.31011715827988 H 0.0 **** 0.06
25003 H 61.56739717594405 25.32640532002881 23.09655419493813 H 0.0 **** 0.06
25004 H 61.472231537937645 25.20980674714866 21.322473234821167 H 0.0 **** 0.06
25005 H 61.30315061704738 23.745963227210552 22.320255579995035 H 0.0 **** 0.06
25006 C 112.33829707460187 88.8272443155043 31.843188323614697 C 0.0 **** -0.24
25007 H 111.46343954653999 88.43389058237926 31.325560223489546 H 0.0 **** 0.06
25008 H 112.21664640894267 88.69047229407933 32.91741325470136 H 0.0 **** 0.06
25009 H 112.44441423217008 89.88932986345792 31.620587370806035 H 0.0 **** 0.06
25010 H 113.22759117182508 88.29521776893029 31.507003246808964 H 0.0 **** 0.06
25011 C 116.24543087362423 3.141839651135001 90.69226706199203 C 0.0 **** -0.24
25012 H 115.23039684884125 3.2576210070537712 91.07166433203258 H 0.0 **** 0.06
25013 H 116.6879522566739 2.237239617874266 91.10898554632149 H 0.0 **** 0.06
25014 H 116.84268615909369 4.005741789988178 90.98451343767186 H 0.0 **** 0.06
25015 H 116.22045770909116 3.0682000033027634 89.60559683334037 H 0.0 **** 0.06
25016 C 70.48813348260586 83.2973828092903 9.628351902981876 C 0.0 **** -0.24
25017 H 69.58436769078776 82.6950885920952 9.716978869406006 H 0.0 **** 0.06
25018 H 71.31996455325634 82.66072758229535 9.323168314578169 H 0.0 **** 0.06
25019 H 70.71515233802421 83.75609405064682 10.590765092960226 H 0.0 **** 0.06
25020 H 70.33431806474374 84.07647932587565 8.881050627623694 H 0.0 **** 0.06
25021 C 118.79894923786208 40.263508315079804 118.07604437097737 C 0.0 **** -0.24
25022 H 119.87951914851391 40.17973016113888 118.18467451232938 H 0.0 **** 0.06
25023 H 118.36762020619784 39.26951993277933 117.95354081608357 H 0.0 **** 0.06
25024 H 118.56843592574774 40.87049082500684 117.19971701871435 H 0.0 **** 0.06
25025 H 118.37977193528644 40.73618860131859 118.96476113616235 H 0.0 **** 0.06
25026 C 21.97040826624192 23.08878625257205 91.77692911569324 C 0.0 **** -0.24
25027 H 22.318084186820407 22.63472366755464 90.84968143438522 H 0.0 **** 0.06
25028 H 22.82712250486602 23.327524261779644 92.40706289445967 H 0.0 **** 0.06
25029 H 21.31680533905145 22.390990243648844 92.30078947336011 H 0.0 **** 0.06
25030 H 21.419621034229806 24.00190683730513 91.55018266056788 H 0.0 **** 0.06
25031 C 101.2270905206959 121.61313431808752 2.107882084235479 C 0.0 **** -0.24
25032 H 102.03369490489933 122.02027222443684 2.7176072694625244 H 0.0 **** 0.06
25033 H 101.64745351813997 120.98792558299877 1.3204770626941293 H 0.0 **** 0.06
25034 H 100.66096361707497 122.43010533123089 1.6606155041663175 H 0.0 **** 0.06
25035 H 100.56591624468541 121.01410068203631 2.734795982272715 H 0.0 **** 0.06
25036 C 67.07666887215088 80.90157661293976 68.05393063900134 C 0.0 **** -0.24
25037 H 67.66319689687481 80.63443238035735 68.93242679180501 H 0.0 **** 0.06
25038 H 67.34106715340315 81.90984779321525 67.7336112084022 H 0.0 **** 0.06
25039 H 66.0157311115646 80.86662731088187 68.30101424539949 H 0.0 **** 0.06
25040 H 67.28628310458599 80.19745841131437 67.24944566388828 H 0.0 **** 0.06
25041 C 19.21522089076575 106.82556177238271 42.02940924423228 C 0.0 **** -0.24
25042 H 18.711168749110612 105.88427398784359 41.81064580123433 H 0.0 **** 0.06
25043 H 20.29165755406764 106.6986949544638 41.905353853406325 H 0.0 **** 0.06
25044 H 19.000003662429364 107.12373491107229 43.055952998846294 H 0.0 **** 0.06
25045 H 18.858966457893914 107.59559683276734 41.34527951874156 H 0.0 **** 0.06
25046 C 59.959141552093655 7.800742482933288 14.301680077027868 C 0.0 **** -0.24
25047 H 59.734835205768235 8.66848933176729 13.681523834535653 H 0.0 **** 0.06
25048 H 59.6204902519365 7.985901580107424 15.32093622699989 H 0.0 **** 0.06
25049 H 61.03387770866706 7.62253006922694 14.302089378944828 H 0.0 **** 0.06
25050 H 59.44572198322143 6.9268460979482995 13.901351296568606 H 0.0 **** 0.06
25051 C 6.4616435593847825 58.61547019781409 47.05697537628967 C 0.0 **** -0.24
25052 H 7.08053790521042 57.84659281762333 46.59471240070843 H 0.0 **** 0.06
25053 H 6.186990975462464 58.30446399837666 48.06534725996542 H 0.0 **** 0.06
25054 H 5.559075703298362 58.76106761122989 46.462286853286116 H 0.0 **** 0.06
25055 H 7.019912912848639 59.550859490128886 47.10467181480669 H 0.0 **** 0.06
25056 C 80.6940054616414 35.09501630940403 112.17465436400481 C 0.0 **** -0.24
25057 H 80.9291985175696 34.18040661061005 111.63128066419507 H 0.0 **** 0.06
25058 H 80.72564797426902 34.898116052110225 113.24718727917852 H 0.0 **** 0.06
25059 H 79.69750925632681 35.437495904489566 111.89659731851336 H 0.0 **** 0.06
25060 H 81.42489961395633 35.86320989632634 111.92443446925014 H 0.0 **** 0.06
25061 C 67.0921280030204 76.37706467596169 7.701781002081702 C 0.0 **** -0.24
25062 H 67.20897489055838 77.35512464300712 7.236916377671832 H 0.0 **** 0.06
25063 H 66.54452643007126 76.48381647447087 8.639293343318784 H 0.0 **** 0.06
25064 H 68.07458006996514 75.948818762213 7.900921879921199 H 0.0 **** 0.06
25065 H 66.53903567083361 75.71992798505076 7.030845880473677 H 0.0 **** 0.06
25066 C 111.88082684130967 81.24127660336178 15.27388070706115 C 0.0 **** -0.24
25067 H 112.01995621819044 80.53631274674159 16.09334313503509 H 0.0 **** 0.06
25068 H 110.95015893601858 81.01597758172204 14.754325858886087 H 0.0 **** 0.06
25069 H 112.71557223758792 81.15794087570087 14.577311232707736 H 0.0 **** 0.06
25070 H 111.84031732768199 82.25558191944616 15.67101722761257 H 0.0 **** 0.06
25071 C 108.54660094709237 47.45372423894028 68.22605342159738 C 0.0 **** -0.24
25072 H 107.60146328915903 46.92664854348854 68.35249182991055 H 0.0 **** 0.06
25073 H 108.5440419939124 48.355903516207746 68.8379322680043 H 0.0 **** 0.06
25074 H 108.67392880920528 47.724814254811434 67.17755946536431 H 0.0 **** 0.06
25075 H 109.36765510222546 46.80629900910381 68.53634591572086 H 0.0 **** 0.06
25076 C 108.11842643504772 52.98166361613903 115.24158030950437 C 0.0 **** -0.24
25077 H 107.43698982292108 52.95707433556322 114.39185967416775 H 0.0 **** 0.06
25078 H 108.46369529049107 51.970952533268644 115.4598238575201 H 0.0 **** 0.06
25079 H 107.59844385191488 53.383202871438584 116.11156598040836 H 0.0 **** 0.06
25080 H 108.97204958445744 53.61525590149631 115.00467960966353 H 0.0 **** 0.06
25081 C 93.9582360676709 4.404704236390302 96.36357574675787 C 0.0 **** -0.24
25082 H 93.6417028200861 4.712610839542521 95.36682805772166 H 0.0 **** 0.06
25083 H 93.69458051105426 5.179942952157418 97.08406410134303 H 0.0 **** 0.06
25084 H 95.03828103167257 4.2542632198619685 96.36998984301877 H 0.0 **** 0.06
25085 H 93.46047328648018 3.4733310447001315 96.63145974897571 H 0.0 **** 0.06
25086 C 42.874226062939044 77.96888048700066 91.55367286981084 C 0.0 **** -0.24
25087 H 43.568142281471495 77.69336103775464 90.76009932383869 H 0.0 **** 0.06
25088 H 43.41088343124969 78.02502250181402 92.50173022577201 H 0.0 **** 0.06
25089 H 42.08749610875532 77.21824232978321 91.62468700865179 H 0.0 **** 0.06
25090 H 42.43239303844743 78.93945974596028 91.32897492227988 H 0.0 **** 0.06
25091 C 2.155782099689276 92.42313527777256 98.23799463585846 C 0.0 **** -0.24
25092 H 2.8779838045309702 91.89262448538419 98.85780158496522 H 0.0 **** 0.06
25093 H 2.6737758601449997 93.17360772129598 97.64003198198043 H 0.0 **** 0.06
25094 H 1.4186315803501657 92.91112302432923 98.87576401991873 H 0.0 **** 0.06
25095 H 1.6549514628560615 91.71532266976443 97.57810097121401 H 0.0 **** 0.06
25096 C 75.0450569228412 8.600174803183279 55.67616297029036 C 0.0 **** -0.24
25097 H 75.4730785874874 8.852912533713418 56.64645974214865 H 0.0 **** 0.06
25098 H 74.79138538812903 9.516360472758475 55.14218514305311 H 0.0 **** 0.06
25099 H 74.14577757853291 8.00219020908164 55.82155470665181 H 0.0 **** 0.06
25100 H 75.7705387067471 8.029980147894651 55.096487276960076 H 0.0 **** 0.06
25101 C 61.37915828062347 74.91111806888756 98.84706058212328 C 0.0 **** -0.24
25102 H 61.47527617899466 75.08468293646484 97.77574025693167 H 0.0 **** 0.06
25103 H 62.11669179462952 75.51085726686318 99.38034466548135 H 0.0 **** 0.06
25104 H 61.54658560194606 73.85538293157043 99.06084582541587 H 0.0 **** 0.06
25105 H 60.37738089643206 75.19319461367337 99.17248899535713 H 0.0 **** 0.06
25106 C 12.150207274843865 23.922157205464487 96.36946643705052 C 0.0 **** -0.24
25107 H 12.854664680531215 23.264930375055485 96.87893512693377 H 0.0 **** 0.06
25108 H 12.676902198512408 24.801087849705837 95.99704984927273 H 0.0 **** 0.06
25109 H 11.373169467943029 24.232316689260273 97.06822179910965 H 0.0 **** 0.06
25110 H 11.696277468289907 23.38894983091369 95.53473577283627 H 0.0 **** 0.06
25111 C 50.85966926639482 101.76542716539868 15.241731413161176 C 0.0 **** -0.24
25112 H 51.3197295390474 101.54907844155451 16.20514534458161 H 0.0 **** 0.06
25113 H 51.54141259822248 102.36785235229496 14.640609394833348 H 0.0 **** 0.06
25114 H 49.930908643474424 102.3152155699783 15.397824920269386 H 0.0 **** 0.06
25115 H 50.645530111233725 100.8307128453954 14.722656932395125 H 0.0 **** 0.06
25116 C 89.98991220021142 19.728974660737798 108.91916934003704 C 0.0 **** -0.24
25117 H 91.00281804346935 19.66367665241436 109.31694144727298 H 0.0 **** 0.06
25118 H 89.97737125829136 20.405792895354196 108.06454279162827 H 0.0 **** 0.06
25119 H 89.32095990259785 20.107500894280683 109.69237723535178 H 0.0 **** 0.06
25120 H 89.65895792488593 18.739127732329425 108.60521389424218 H 0.0 **** 0.06
25121 C 55.46358279461059 58.42550167540901 116.78071266621257 C 0.0 **** -0.24
25122 H 55.731419862450124 59.259277587839264 116.13129926187774 H 0.0 **** 0.06
25123 H 55.696159922991015 58.681654602953 117.81452274733235 H 0.0 **** 0.06
25124 H 56.03077513778361 57.54128849137193 116.48934929206115 H 0.0 **** 0.06
25125 H 54.39777195648806 58.221106530768694 116.6875005480852 H 0.0 **** 0.06
25126 C 121.7484197965815 54.92877647775666 89.10383578265754 C 0.0 **** -0.24
25127 H 121.49397374103823 54.55710427763168 88.11133657424256 H 0.0 **** 0.06
25128 H 120.86993294631547 55.389386468032 89.55603044511497 H 0.0 **** 0.06
25129 H 122.54526416935336 55.66893697080087 89.02043742697305 H 0.0 **** 0.06
25130 H 122.08652592464142 54.10048536340432 89.72701137328596 H 0.0 **** 0.06
25131 C 0.9139302748010323 111.22038407494502 13.426376309839952 C 0.0 **** -0.24
25132 H 1.0302957676408369 111.51967854179402 14.467750197123792 H 0.0 **** 0.06
25133 H 0.12247448547918793 111.81078238043004 12.9649694731321 H 0.0 **** 0.06
25134 H 0.6532141026091836 110.16300553855106 13.379788540667334 H 0.0 **** 0.06
25135 H 1.8497367434745797 111.38806983900477 12.89299702843698 H 0.0 **** 0.06
25136 C 89.49384613446392 108.25733408129571 41.117928414445345 C 0.0 **** -0.24
25137 H 90.04255786740998 107.99768309372726 42.023013207868914 H 0.0 **** 0.06
25138 H 89.35346057355713 109.33823319460504 41.0763616237413 H 0.0 **** 0.06
25139 H 88.52121952867174 107.76452551785297 41.1279762377255 H 0.0 **** 0.06
25140 H 90.05775594464097 107.93109537095273 40.244425294207375 H 0.0 **** 0.06
25141 C 110.91996486597353 8.332739673309561 82.50711946811433 C 0.0 **** -0.24
25142 H 110.4361930676094 8.303003121220144 83.48389290145431 H 0.0 **** 0.06
25143 H 110.44331295188226 9.092906272161429 81.8888724642965 H 0.0 **** 0.06
25144 H 110.824193916838 7.359664245909244 82.0261518953059 H 0.0 **** 0.06
25145 H 111.97554489688957 8.574217006452187 82.6326033871145 H 0.0 **** 0.06
25146 C 98.60400350490065 88.82401148488692 116.76158479669942 C 0.0 **** -0.24
25147 H 98.94435091755602 89.68888819306628 117.33095780425057 H 0.0 **** 0.06
25148 H 97.65719510440894 88.47069748446235 117.16987362851611 H 0.0 **** 0.06
25149 H 99.3479719963477 88.03003066319809 116.82718243918126 H 0.0 **** 0.06
25150 H 98.46678990795502 89.10839265636066 115.71807987959696 H 0.0 **** 0.06
25151 C 52.21590400223303 56.22171800467319 4.189256302070561 C 0.0 **** -0.24
25152 H 51.786977721365446 56.01302052968829 5.169001310053687 H 0.0 **** 0.06
25153 H 52.200222406526535 55.31394021841366 3.5851252330313486 H 0.0 **** 0.06
25154 H 53.244238268350216 56.56259583261691 4.307152960167002 H 0.0 **** 0.06
25155 H 51.63118540671027 56.9976112746524 3.6947823176721784 H 0.0 **** 0.06
25156 C 59.6820989375866 30.320581842018754 37.41239473063666 C 0.0 **** -0.24
25157 H 59.76437124583913 29.365774482148254 36.89276130383273 H 0.0 **** 0.06
25158 H 60.51707373498823 30.42969377539694 38.10532289548649 H 0.0 **** 0.06
25159 H 58.74373263916317 30.353322731757373 37.966093597940684 H 0.0 **** 0.06
25160 H 59.703793958744654 31.1332061693262 36.68614908050724 H 0.0 **** 0.06
25161 C 30.91025862637281 45.54623348643047 94.97200085782018 C 0.0 **** -0.24
25162 H 30.743912193605468 45.10203804813384 93.99008943660817 H 0.0 **** 0.06
25163 H 31.803894053546344 46.16938067433141 94.94173541481806 H 0.0 **** 0.06
25164 H 31.042382471072813 44.75578485236086 95.70964024203019 H 0.0 **** 0.06
25165 H 30.04993010972362 46.15676222036621 95.24404341334073 H 0.0 **** 0.06
25166 C 55.614960597957335 82.07180515376837 73.50058106995846 C 0.0 **** -0.24
25167 H 56.225410212206995 81.4416685070862 72.85332778737825 H 0.0 **** 0.06
25168 H 54.573356230126166 82.01657145375952 73.18256952768343 H 0.0 **** 0.06
25169 H 55.960725582552286 83.10247372451508 73.43501832152137 H 0.0 **** 0.06
25170 H 55.69975199389651 81.72368947624778 74.53010310048802 H 0.0 **** 0.06
25171 C 20.52872942150872 123.10027285663762 45.339590835918365 C 0.0 **** -0.24
25172 H 21.575137267151646 123.38817647739799 45.43971486406598 H 0.0 **** 0.06
25173 H 20.31794375437253 122.85384516602214 44.298711626374015 H 0.0 **** 0.06
25174 H 19.893581982300084 123.92840045756986 45.65317349493774 H 0.0 **** 0.06
25175 H 20.32932563548009 122.23106472594209 45.96759811866851 H 0.0 **** 0.06
25176 C 11.172795177484701 66.95290161460503 30.543279436445005 C 0.0 **** -0.24
25177 H 12.092872212637587 66.47983978502498 30.886776850546767 H 0.0 **** 0.06
25178 H 11.415064385283642 67.74544768403979 29.834953176995896 H 0.0 **** 0.06
25179 H 10.64288951603632 67.37805474836796 31.396422788953032 H 0.0 **** 0.06
25180 H 10.541757144787567 66.2095543360847 30.05728203828039 H 0.0 **** 0.06
25181 C 40.153712375460096 49.64700652804837 123.98650657520729 C 0.0 **** -0.24
25182 H 39.98850105125534 49.97237488273991 125.01331635640258 H 0.0 **** 0.06
25183 H 41.221978261240174 49.647298820123794 123.77305740905146 H 0.0 **** 0.06
25184 H 39.645548459678 50.32758429130389 123.30326206751899 H 0.0 **** 0.06
25185 H 39.756819366330525 48.63988938687515 123.85685805822365 H 0.0 **** 0.06
25186 C 36.29714104073591 6.920051670502218 116.29544537478492 C 0.0 **** -0.24
25187 H 35.75088025741887 6.450411105630707 115.47664034711596 H 0.0 **** 0.06
25188 H 35.72806339835442 6.814150667114646 117.21949373166395 H 0.0 **** 0.06
25189 H 36.44135541948205 7.977073263371523 116.07603212978242 H 0.0 **** 0.06
25190 H 37.267123930727664 6.436321304822414 116.40799226609336 H 0.0 **** 0.06
25191 C 47.65220804161089 110.30371984991477 21.413027254200472 C 0.0 **** -0.24
25192 H 47.77999583194702 109.2330710916562 21.251329203318164 H 0.0 **** 0.06
25193 H 47.54745353276161 110.80661756488097 20.451414487146053 H 0.0 **** 0.06
25194 H 48.52354241982226 110.69827445926889 21.936798033510854 H 0.0 **** 0.06
25195 H 46.75911046264463 110.47577274576898 22.012849031105077 H 0.0 **** 0.06
25196 C 13.722922908866877 44.96793085624992 6.361430006774981 C 0.0 **** -0.24
25197 H 13.911056839183004 44.03857113269842 6.899658464437948 H 0.0 **** 0.06
25198 H 13.291947260484136 45.701107594194056 7.042720351073513 H 0.0 **** 0.06
25199 H 13.028207407716138 44.77882796222954 5.542528167371557 H 0.0 **** 0.06
25200 H 14.661593373868897 45.35105857714814 5.960491553216116 H 0.0 **** 0.06
25201 C 32.248580444249455 117.38921384997909 76.38503276008686 C 0.0 **** -0.24
25202 H 31.445576493309687 118.0751081511404 76.11425906244179 H 0.0 **** 0.06
25203 H 32.41837377017407 116.68800399839463 75.56767744935883 H 0.0 **** 0.06
25204 H 31.9685423299602 116.83881818404362 77.28436200030572 H 0.0 **** 0.06
25205 H 33.16043292445812 117.95433104421053 76.5754750465421 H 0.0 **** 0.06
25206 C 102.29489073421286 51.9916144994979 3.8403198364414948 C 0.0 **** -0.24
25207 H 102.28400865568636 52.94462675285476 3.3131587291563847 H 0.0 **** 0.06
25208 H 102.93840395790602 51.289685070197436 3.308727338269648 H 0.0 **** 0.06
25209 H 101.28163487395652 51.591372840190616 3.8881104196139518 H 0.0 **** 0.06
25210 H 102.67493293032295 52.13960661351908 4.850735555831193 H 0.0 **** 0.06
25211 C 101.34710416219957 48.683540101047925 119.92425878685441 C 0.0 **** -0.24
25212 H 101.66089312314179 48.381887889930795 120.92396783455256 H 0.0 **** 0.06
25213 H 100.3991771126403 48.20143278414355 119.68110316007876 H 0.0 **** 0.06
25214 H 102.10419564764076 48.38396645675442 119.19972872590183 H 0.0 **** 0.06
25215 H 101.22214617422908 49.766229019604395 119.89459489455112 H 0.0 **** 0.06
25216 C 109.90080623714545 88.81695879070347 0.850761027616203 C 0.0 **** -0.24
25217 H 109.99440609304418 89.84933250016122 1.1872194644789964 H 0.0 **** 0.06
25218 H 108.85473983556858 88.60112021640745 0.6280872192523539 H 0.0 **** 0.06
25219 H 110.25204311826775 88.145919355792 1.6349277590817746 H 0.0 **** 0.06
25220 H 110.5009892939776 88.6728371524891 -0.04731966395840104 H 0.0 **** 0.06
25221 C 0.6860220706539906 8.697272772808901 74.53515093473641 C 0.0 **** -0.24
25222 H 1.0126179354681426 9.693141661083757 74.23454148352499 H 0.0 **** 0.06
25223 H 1.3952964904282652 8.284302247820222 75.25316827917842 H 0.0 **** 0.06
25224 H 0.6384993839744197 8.051511870618754 73.65846618835505 H 0.0 **** 0.06
25225 H -0.3005975539033443 8.760840746438078 74.99319622868742 H 0.0 **** 0.06
25226 C 70.43549692666454 106.03384579811592 17.933566661683926 C 0.0 **** -0.24
25227 H 69.87249383166476 105.83471587507056 17.02174623387063 H 0.0 **** 0.06
25228 H 70.80467031548808 105.09503715910766 18.345559400819752 H 0.0 **** 0.06
25229 H 69.78755701981233 106.5213061887771 18.66229292871631 H 0.0 **** 0.06
25230 H 71.27781665320798 106.68670045530114 17.704444449387353 H 0.0 **** 0.06
25231 C 36.250001599363884 68.42770996377442 4.767906280634293 C 0.0 **** -0.24
25232 H 36.586112653502084 68.5155556890198 5.801824207340928 H 0.0 **** 0.06
25233 H 37.06176259101497 68.70786194665777 4.097210655520829 H 0.0 **** 0.06
25234 H 35.3990844699714 69.08888238945164 4.60611712460484 H 0.0 **** 0.06
25235 H 35.95247622728411 67.39782861272079 4.56915066739159 H 0.0 **** 0.06
25236 C 14.871860802989858 47.145747934805456 3.217173338834712 C 0.0 **** -0.24
25237 H 15.938135452489263 47.364022550051516 3.163180385852897 H 0.0 **** 0.06
25238 H 14.670259833653404 46.19710035278709 2.7170986864557563 H 0.0 **** 0.06
25239 H 14.313119777433073 47.941286518033564 2.7248812510682114 H 0.0 **** 0.06
25240 H 14.566906245146996 47.078733882560954 4.260595803852823 H 0.0 **** 0.06
25241 C 79.52600509577996 0.5419799395686109 36.521653923441136 C 0.0 **** -0.24
25242 H 79.91508783591331 0.9479287905949949 37.45529242188843 H 0.0 **** 0.06
25243 H 79.94579010789516 1.0974060981577587 35.681808617523586 H 0.0 **** 0.06
25244 H 78.43980549925703 0.6334921076660329 36.510852147080755 H 0.0 **** 0.06
25245 H 79.80417208768091 -0.508621788742774 36.43894459097834 H 0.0 **** 0.06
25246 C 26.384601854299888 52.59277316647797 81.79098123669849 C 0.0 **** -0.24
25247 H 25.97962800792112 51.60803643354197 81.5598873063276 H 0.0 **** 0.06
25248 H 25.745253008583745 53.359639903148306 81.35313286863516 H 0.0 **** 0.06
25249 H 27.38969629298441 52.67896229194011 81.37809588716311 H 0.0 **** 0.06
25250 H 26.423032404765763 52.72481334065449 82.87169772385835 H 0.0 **** 0.06
25251 C 60.62667836672239 70.02573881793322 36.081810926582826 C 0.0 **** -0.24
25252 H 60.624976465496644 70.89867099336377 36.734581352370405 H 0.0 **** 0.06
25253 H 61.65135004892065 69.68202564557266 35.93690075146242 H 0.0 **** 0.06
25254 H 60.19316817233258 70.29132740393709 35.11793319022585 H 0.0 **** 0.06
25255 H 60.03738738871195 69.22970016959394 36.53850381695256 H 0.0 **** 0.06
25256 C 49.229445121153525 41.75708793957338 40.25172969651702 C 0.0 **** -0.24
25257 H 49.62551319083322 40.74152979074188 40.24767442627304 H 0.0 **** 0.06
25258 H 49.864480710997256 42.396757630746606 39.63765619143674 H 0.0 **** 0.06
25259 H 49.21072179254786 42.135032475040276 41.27381582730585 H 0.0 **** 0.06
25260 H 48.217353482922434 41.75329867694214 39.846389230419966 H 0.0 **** 0.06
25261 C 85.01828718973513 91.83804427178171 40.4377918308449 C 0.0 **** -0.24
25262 H 85.79108622528662 92.25309024293068 41.08541768143647 H 0.0 **** 0.06
25263 H 84.58808421419076 92.63363016177965 39.82945212404468 H 0.0 **** 0.06
25264 H 84.23806020024716 91.38450128117745 41.04909642766569 H 0.0 **** 0.06
25265 H 85.4579979329709 91.08051894729306 39.78841936952722 H 0.0 **** 0.06
25266 C 33.636965961756374 48.646598657496924 35.56544553516077 C 0.0 **** -0.24
25267 H 33.63947546058793 49.50911103494341 36.231416085022886 H 0.0 **** 0.06
25268 H 32.60995132617364 48.39540951840079 35.301739972333856 H 0.0 **** 0.06
25269 H 34.1024218957383 47.798370452370584 36.06757739230447 H 0.0 **** 0.06
25270 H 34.19660908756879 48.88522976996402 34.66023144501696 H 0.0 **** 0.06
25271 C 95.62811569401804 94.65137349814677 8.142012596171128 C 0.0 **** -0.24
25272 H 96.6551671843951 94.30425142928294 8.255578520186816 H 0.0 **** 0.06
25273 H 94.94429201051439 93.81552263151644 8.290751363258494 H 0.0 **** 0.06
25274 H 95.49187888607857 95.05876395234239 7.139654217855792 H 0.0 **** 0.06
25275 H 95.42175643271572 95.42549835583719 8.880201729087275 H 0.0 **** 0.06
25276 C 88.88848486540158 99.32065668133129 108.73279153824407 C 0.0 **** -0.24
25277 H 88.64501229180632 100.23537414691438 108.1915708676693 H 0.0 **** 0.06
25278 H 89.56284554706784 99.55552320162404 109.55752980205855 H 0.0 **** 0.06
25279 H 89.37207842423771 98.616100331008 108.0567151480754 H 0.0 **** 0.06
25280 H 87.97340381757076 98.8776250728535 109.12616082054785 H 0.0 **** 0.06
25281 C 87.37288731631249 43.73500620190407 119.68177889211915 C 0.0 **** -0.24
25282 H 86.40548416876688 43.651231328611644 120.17665019938175 H 0.0 **** 0.06
25283 H 87.73542852821652 42.739414987792884 119.42209674645892 H 0.0 **** 0.06
25284 H 88.08437935619727 44.21783642700905 120.35178618028135 H 0.0 **** 0.06
25285 H 87.26583296249491 44.33101714227291 118.77498725266787 H 0.0 **** 0.06
25286 C 63.83540327298057 101.47710002884472 48.99290272458725 C 0.0 **** -0.24
25287 H 64.69384215248445 102.09182008112566 49.26551363564329 H 0.0 **** 0.06
25288 H 63.68373140281072 100.70895808697631 49.75250947309152 H 0.0 **** 0.06
25289 H 64.0198553670271 101.00311811035496 48.029343063332846 H 0.0 **** 0.06
25290 H 62.94626331676446 102.10296885642506 48.926067229554434 H 0.0 **** 0.06
25291 C 87.55702895784827 54.17397869450433 12.515022661632791 C 0.0 **** -0.24
25292 H 86.479680341689 54.012091340987865 12.486003166293443 H 0.0 **** 0.06
25293 H 87.85024410761892 54.48350997933484 13.518212060771212 H 0.0 **** 0.06
25294 H 87.82604546924154 54.953011551131894 11.801263132946431 H 0.0 **** 0.06
25295 H 88.071020996615 53.248970711745315 12.253637647684254 H 0.0 **** 0.06
25296 C 45.21879101494736 45.533210983235335 110.94729378811748 C 0.0 **** -0.24
25297 H 44.68366870547801 45.659009433226714 110.00599225418753 H 0.0 **** 0.06
25298 H 44.88534477420251 44.61626802506257 111.43432764777062 H 0.0 **** 0.06
25299 H 45.01539955745895 46.38442278653852 111.59680365824684 H 0.0 **** 0.06
25300 H 46.28934199624737 45.472962838681184 110.75106058320785 H 0.0 **** 0.06
25301 C 33.69352004967834 4.181834111263953 13.569054755903664 C 0.0 **** -0.24
25302 H 33.50482233973287 4.928228663076453 14.341336511153031 H 0.0 **** 0.06
25303 H 33.97861205701713 3.239184659690352 14.037083931841664 H 0.0 **** 0.06
25304 H 34.50036939056588 4.526654376476387 12.92184082690602 H 0.0 **** 0.06
25305 H 32.7894752916273 4.036040410997515 12.976780287500219 H 0.0 **** 0.06
25306 C 86.45188588225795 21.223968689994933 31.65254098210721 C 0.0 **** -0.24
25307 H 87.3644745401248 20.67104798246271 31.87386271328799 H 0.0 **** 0.06
25308 H 86.18478958353403 21.079016773013223 30.605851818266473 H 0.0 **** 0.06
25309 H 86.61550579771563 22.284927661135328 31.84305692375628 H 0.0 **** 0.06
25310 H 85.6447326957066 20.86180284762446 32.28795364514957 H 0.0 **** 0.06
25311 C 51.17954624020962 12.828069462100899 103.7732189973081 C 0.0 **** -0.24
25312 H 51.897731356901204 12.278787611329392 103.1645406852291 H 0.0 **** 0.06
25313 H 51.48360046877741 12.786451254933354 104.819454006657 H 0.0 **** 0.06
25314 H 50.19280831019489 12.38075045965553 103.66239678233347 H 0.0 **** 0.06
25315 H 51.14660896106369 13.868139295582779 103.44650404045825 H 0.0 **** 0.06
25316 C 31.660614610995623 86.3562768103948 32.8542375075795 C 0.0 **** -0.24
25317 H 31.400241866403434 86.25462775836877 31.800676302912365 H 0.0 **** 0.06
25318 H 32.73141560052835 86.19591880338868 32.98058333328334 H 0.0 **** 0.06
25319 H 31.110386752778822 85.61713744603657 33.43708487007143 H 0.0 **** 0.06
25320 H 31.39911307641404 87.35688289346561 33.19872862498016 H 0.0 **** 0.06
25321 C 25.21527618314559 66.91494037783167 60.19500177913568 C 0.0 **** -0.24
25322 H 24.968970588163927 67.97615235819754 60.236225764402434 H 0.0 **** 0.06
25323 H 26.29562302761235 66.78850911871334 60.266769106015715 H 0.0 **** 0.06
25324 H 24.862115891981432 66.49639691886473 59.252558736496155 H 0.0 **** 0.06
25325 H 24.732685365019336 66.39857104579545 61.02469661021951 H 0.0 **** 0.06
25326 C 69.67591169983865 114.63863696795772 99.09515175777652 C 0.0 **** -0.24
25327 H 70.70710866014396 114.9708430404082 99.20970565088824 H 0.0 **** 0.06
25328 H 69.4434701355567 113.90525563306952 99.8680246472436 H 0.0 **** 0.06
25329 H 69.54720980842433 114.18475197121708 98.11259339601075 H 0.0 **** 0.06
25330 H 69.00575890703156 115.49319553597832 99.1916018797516 H 0.0 **** 0.06
25331 C 59.21879975176148 18.307339177647634 26.319101145925003 C 0.0 **** -0.24
25332 H 58.82155511247561 17.293131717675863 26.301996841236814 H 0.0 **** 0.06
25333 H 59.04097502286447 18.78404794570241 25.354875109016973 H 0.0 **** 0.06
25334 H 60.29070896352283 18.27369914750551 26.515306968491927 H 0.0 **** 0.06
25335 H 58.72336109185983 18.878602060186438 27.10407946055267 H 0.0 **** 0.06
25336 C 55.62328550515943 103.77081004502591 64.44492883195565 C 0.0 **** -0.24
25337 H 55.014722178587164 103.20684904353874 63.73831836513315 H 0.0 **** 0.06
25338 H 56.492705357179574 104.17866287314592 63.929896924324765 H 0.0 **** 0.06
25339 H 55.95154662189586 103.1117833971553 65.2483628339518 H 0.0 **** 0.06
25340 H 55.032673744115556 104.5865796613939 64.86253321364566 H 0.0 **** 0.06
25341 C 54.00435285415483 120.5182171838021 85.005776907094 C 0.0 **** -0.24
25342 H 53.12012554746755 119.99153906138105 85.36363845879939 H 0.0 **** 0.06
25343 H 53.723082172879046 121.51821816284246 84.67684300721388 H 0.0 **** 0.06
25344 H 54.4401601907945 119.96988632653395 84.17023218836198 H 0.0 **** 0.06
25345 H 54.73459478712161 120.59196065008669 85.81208228723594 H 0.0 **** 0.06
25346 C 35.26148254519188 41.782994942282414 100.23666044884956 C 0.0 **** -0.24
25347 H 34.74260807189518 42.73966090782028 100.30590118197732 H 0.0 **** 0.06
25348 H 36.332681660160574 41.94139403832145 100.36197165352155 H 0.0 **** 0.06
25349 H 35.07166795536233 41.336821129289206 99.26019944984142 H 0.0 **** 0.06
25350 H 34.8982152188251 41.114846818146304 101.01720040004736 H 0.0 **** 0.06
25351 C 103.7170079907969 73.85237599263682 124.1540858148633 C 0.0 **** -0.24
25352 H 103.19466666356422 74.80762791861363 124.09690163501247 H 0.0 **** 0.06
25353 H 103.89038900364281 73.59424952011116 125.19882236489437 H 0.0 **** 0.06
25354 H 104.67334840886241 73.93068983586188 123.63514000181647 H 0.0 **** 0.06
25355 H 103.11099624456557 73.07829816718987 123.68297435648877 H 0.0 **** 0.06
25356 C 33.58951212629199 65.65090125555002 64.576045925872 C 0.0 **** -0.24
25357 H 33.39072692404034 65.79427045364223 65.63771177505919 H 0.0 **** 0.06
25358 H 32.928765245048794 64.87587913139245 64.18460487014535 H 0.0 **** 0.06
25359 H 34.62662045265313 65.34728912789342 64.4381995212989 H 0.0 **** 0.06
25360 H 33.40962508314226 66.58457474683803 64.04331038147436 H 0.0 **** 0.06
25361 C 81.99369652817799 42.41521561113427 72.79974383952614 C 0.0 **** -0.24
25362 H 82.60465484957479 41.514056391341484 72.75493694655644 H 0.0 **** 0.06
25363 H 82.39386403476513 43.08855757956405 73.55843503012754 H 0.0 **** 0.06
25364 H 80.9691539511721 42.14689124474617 73.05716808341303 H 0.0 **** 0.06
25365 H 82.00578625094036 42.91159085296124 71.82952368303518 H 0.0 **** 0.06
25366 C 47.91418991271365 41.78574360416971 64.89571421610897 C 0.0 **** -0.24
25367 H 47.06719552092977 42.37713333888067 64.54820395952896 H 0.0 **** 0.06
25368 H 47.73233236063572 41.45579636214513 65.91863130254181 H 0.0 **** 0.06
25369 H 48.818892437130586 42.39329519681466 64.86402606601631 H 0.0 **** 0.06
25370 H 48.03790396500821 40.915193791575284 64.25044943277985 H 0.0 **** 0.06
25371 C 96.94939249697457 101.75223469334237 70.64516259911622 C 0.0 **** -0.24
25372 H 97.4144202021301 102.6890043311073 70.33874855980174 H 0.0 **** 0.06
25373 H 96.44014320458074 101.30302908253624 69.7917879730675 H 0.0 **** 0.06
25374 H 96.22711345038876 101.94796707245735 71.43818628327875 H 0.0 **** 0.06
25375 H 97.71522613737866 101.06955397889523 71.0123472197134 H 0.0 **** 0.06
25376 C 95.77595968170264 28.692359651817668 114.44437474659591 C 0.0 **** -0.24
25377 H 96.01772125707944 28.19685722345278 113.50369072328053 H 0.0 **** 0.06
25378 H 95.61395218499837 27.942600784878778 115.21834172417053 H 0.0 **** 0.06
25379 H 94.8721698970763 29.28782906859294 114.3185301575046 H 0.0 **** 0.06
25380 H 96.60256840262504 29.341535806748084 114.73429039783862 H 0.0 **** 0.06
25381 C 0.6145152936194478 66.17580705302925 14.152557057984211 C 0.0 **** -0.24
25382 H 1.0741881268967433 66.38467686554621 13.18673565874957 H 0.0 **** 0.06
25383 H -0.4681966249629994 66.11527569473508 14.033899292500053 H 0.0 **** 0.06
25384 H 0.8595692966422206 66.97480786318636 14.851793004964236 H 0.0 **** 0.06
25385 H 0.9915251126752196 65.22794359291714 14.536920396344158 H 0.0 **** 0.06
25386 C 107.71117200184857 11.43704292178407 57.53036019788186 C 0.0 **** -0.24
25387 H 107.46768134761741 10.507433991997999 57.01512016590539 H 0.0 **** 0.06
25388 H 108.20245671480222 12.119322536282539 56.83577281627302 H 0.0 **** 0.06
25389 H 108.37909799433797 11.225164313725742 58.36607312853272 H 0.0 **** 0.06
25390 H 106.79572290287588 11.895242002370338 57.90352130344195 H 0.0 **** 0.06
25391 C 23.85659003901815 39.64687026606765 51.3457490934872 C 0.0 **** -0.24
25392 H 24.35423609382965 38.7526825323672 50.97095930438343 H 0.0 **** 0.06
25393 H 24.3599014857204 39.99113053078935 52.249724874948214 H 0.0 **** 0.06
25394 H 22.81674106200264 39.41442742710973 51.57365278647342 H 0.0 **** 0.06
25395 H 23.89625461732095 40.429477425793436 50.587127620247 H 0.0 **** 0.06
25396 C 3.78622973640924 32.2126902304465 70.31628832714433 C 0.0 **** -0.24
25397 H 4.655683662796378 32.715956482504026 69.89248920532532 H 0.0 **** 0.06
25398 H 2.9689714241080196 32.9263531120484 70.41997942017753 H 0.0 **** 0.06
25399 H 4.043245555713554 31.80862845389298 71.29553276238116 H 0.0 **** 0.06
25400 H 3.4799007975736913 31.400761681209303 69.65625169785106 H 0.0 **** 0.06
25401 C 30.493129851665117 40.81773807408538 106.54588323018467 C 0.0 **** -0.24
25402 H 30.659351151761882 41.88134369208308 106.37981039041405 H 0.0 **** 0.06
25403 H 29.681371048955242 40.682951177664776 107.2618678210727 H 0.0 **** 0.06
25404 H 31.403784503753883 40.36470506385754 106.93970423650835 H 0.0 **** 0.06
25405 H 30.229619120340317 40.339445968383444 105.60177913639222 H 0.0 **** 0.06
25406 C 6.5216866820924935 16.323389663063608 20.757262841894658 C 0.0 **** -0.24
25407 H 7.143062478865524 15.501082869118335 21.112187301102267 H 0.0 **** 0.06
25408 H 7.094522409938989 16.936347157368914 20.06198160260857 H 0.0 **** 0.06
25409 H 6.2061553651204875 16.931411093219566 21.604960088269536 H 0.0 **** 0.06
25410 H 5.642977752714664 15.921954108133065 20.251459644866884 H 0.0 **** 0.06
25411 C 77.74074233054667 80.34958194093551 113.48362790544985 C 0.0 **** -0.24
25412 H 78.42604992735946 79.53082738291062 113.70131607812803 H 0.0 **** 0.06
25413 H 77.60034664639313 80.95311082695761 114.38118276225677 H 0.0 **** 0.06
25414 H 76.77966342825667 79.94421661457004 113.16500574913312 H 0.0 **** 0.06
25415 H 78.15555236603372 80.96958540769754 112.68941823759255 H 0.0 **** 0.06
25416 C 0.6496531663305216 28.43481999949006 25.356377957090046 C 0.0 **** -0.24
25417 H 0.7992108522490824 28.74394592841545 24.322628817694124 H 0.0 **** 0.06
25418 H 0.33420646540423427 27.39137302866814 25.38168703314045 H 0.0 **** 0.06
25419 H -0.1181929580154577 29.058290291707458 25.81524054176549 H 0.0 **** 0.06
25420 H 1.583975138556367 28.544980089380125 25.907041126085858 H 0.0 **** 0.06
25421 C 89.17522851291369 4.601765743761181 9.083895898305684 C 0.0 **** -0.24
25422 H 88.42629598035796 5.392162327696003 9.11311784017613 H 0.0 **** 0.06
25423 H 88.77941152194387 3.7071436375396143 9.56386971616891 H 0.0 **** 0.06
25424 H 90.07089338781526 4.930595312107368 9.61074620332792 H 0.0 **** 0.06
25425 H 89.42646250911201 4.377330744418007 8.046687056720174 H 0.0 **** 0.06
25426 C 121.40256114940559 111.4777645345091 29.652849396096663 C 0.0 **** -0.24
25427 H 122.4747372906879 111.29586667915055 29.730978994949083 H 0.0 **** 0.06
25428 H 120.87690524106776 110.87482429381112 30.39268356072845 H 0.0 **** 0.06
25429 H 121.0609764881827 111.20734066918055 28.653589384122228 H 0.0 **** 0.06
25430 H 121.19941217708705 112.53352633724086 29.832897249889683 H 0.0 **** 0.06
25431 C 69.12408775805713 81.69527765943518 14.947761341742819 C 0.0 **** -0.24
25432 H 68.5932128552003 82.61016950569558 15.213781144949365 H 0.0 **** 0.06
25433 H 68.90261460822902 81.43462872441172 13.912845171089941 H 0.0 **** 0.06
25434 H 68.80302837891006 80.88644492103909 15.603625770048975 H 0.0 **** 0.06
25435 H 70.19687000230792 81.85254454733771 15.06145879966881 H 0.0 **** 0.06
25436 C 100.05661646568677 109.2224991479745 61.22228053627951 C 0.0 **** -0.24
25437 H 101.1356313838983 109.06363564574892 61.22326875361297 H 0.0 **** 0.06
25438 H 99.83579075781816 110.21327990393986 60.82550201676949 H 0.0 **** 0.06
25439 H 99.67750743543931 109.14459152595042 62.24068487169082 H 0.0 **** 0.06
25440 H 99.57971301801149 108.46605391326702 60.59813994772436 H 0.0 **** 0.06
25441 C 28.057982142009237 95.16646626084042 64.45548022186352 C 0.0 **** -0.24
25442 H 27.506129635339505 95.643062780702 63.64450590482821 H 0.0 **** 0.06
25443 H 28.351795124681985 95.91910764166141 65.18698933276775 H 0.0 **** 0.06
25444 H 28.949019397392092 94.68366816039835 64.05230855806062 H 0.0 **** 0.06
25445 H 27.424990316792872 94.4198982820964 64.9349573336375 H 0.0 **** 0.06
25446 C 23.189280255675357 29.22854684518083 96.33873126565561 C 0.0 **** -0.24
25447 H 22.787922579433456 28.492216626176656 97.03479125841892 H 0.0 **** 0.06
25448 H 22.40347400955315 29.547457772958126 95.65454048201678 H 0.0 **** 0.06
25449 H 24.006556032165065 28.78298198014116 95.77083602008872 H 0.0 **** 0.06
25450 H 23.559905247632685 30.089483069892907 96.89424417217538 H 0.0 **** 0.06
25451 C 75.06003956980888 26.71657426758275 121.4024491212255 C 0.0 **** -0.24
25452 H 76.13619615394924 26.598007062183527 121.27454855753163 H 0.0 **** 0.06
25453 H 74.66649932439586 25.869469847032235 121.96599680083715 H 0.0 **** 0.06
25454 H 74.58051131119691 26.75745827042045 120.42467571658116 H 0.0 **** 0.06
25455 H 74.85951030480396 27.63929389310492 121.94566007334878 H 0.0 **** 0.06
25456 C 25.60716872766706 21.725072800943394 84.46821100954477 C 0.0 **** -0.24
25457 H 24.708699477255344 21.818404152612658 83.8574770105119 H 0.0 **** 0.06
25458 H 25.79536523129584 20.673039533898617 84.67975941071433 H 0.0 **** 0.06
25459 H 25.466795244930154 22.264423381668934 85.40556313339727 H 0.0 **** 0.06
25460 H 26.457313101330307 22.145921412415362 83.9307561461782 H 0.0 **** 0.06
25461 C 53.523472721925046 68.52084274869321 25.25673795815203 C 0.0 **** -0.24
25462 H 52.986126531581746 68.28538125400809 26.17475462513167 H 0.0 **** 0.06
25463 H 53.01114136843151 69.32782865436405 24.732581437670376 H 0.0 **** 0.06
25464 H 53.55758023480384 67.63683884656484 24.61965200851577 H 0.0 **** 0.06
25465 H 54.53949131648098 68.83214045560254 25.499329502689676 H 0.0 **** 0.06
25466 C 74.34454135198212 40.720598828823256 107.90979024122267 C 0.0 **** -0.24
25467 H 74.38534810539659 41.52869387343276 107.17980264818907 H 0.0 **** 0.06
25468 H 74.67469979006557 39.7925342168665 107.44247747620105 H 0.0 **** 0.06
25469 H 73.32046918860834 40.604177365298085 108.26567786207252 H 0.0 **** 0.06
25470 H 74.99670460746 40.95641558210468 108.7503199654857 H 0.0 **** 0.06
25471 C 45.72458185798359 97.69465040477924 101.49039520136807 C 0.0 **** -0.24
25472 H 44.74603975169992 97.85700134052094 101.94395590107646 H 0.0 **** 0.06
25473 H 46.24011803870431 96.89204996764268 102.01834569387219 H 0.0 **** 0.06
25474 H 46.311681984029875 98.61138124391047 101.55725920824742 H 0.0 **** 0.06
25475 H 45.59859114251854 97.41988944838765 100.44322164612629 H 0.0 **** 0.06
25476 C 10.031737423280958 58.29070087094988 103.60311190857774 C 0.0 **** -0.24
25477 H 9.868644423680223 57.88927816631258 104.6031169954816 H 0.0 **** 0.06
25478 H 9.118192663590833 58.770687462139506 103.25179927597614 H 0.0 **** 0.06
25479 H 10.300723998250362 57.481031680752324 102.92567433633644 H 0.0 **** 0.06
25480 H 10.838598342003365 59.023087450049275 103.6335105323715 H 0.0 **** 0.06
25481 C 118.02218231428098 101.85436399276193 98.33033567406815 C 0.0 **** -0.24
25482 H 118.15763907994967 102.7414540583647 97.7109364233977 H 0.0 **** 0.06
25483 H 118.30103201961384 100.96769725452293 97.75971345092773 H 0.0 **** 0.06
25484 H 116.977890242844 101.77840219179586 98.63175486950385 H 0.0 **** 0.06
25485 H 118.6521062047843 101.93018408815118 99.2159517569261 H 0.0 **** 0.06
25486 C 52.121415899686156 80.65606667602844 89.4290314633277 C 0.0 **** -0.24
25487 H 51.46314939219408 80.31878660968268 88.62790468775174 H 0.0 **** 0.06
25488 H 53.14134703114084 80.73598738266314 89.05164184148472 H 0.0 **** 0.06
25489 H 52.09241573845745 79.93752313805322 90.24821818664633 H 0.0 **** 0.06
25490 H 51.78776529003048 81.6297394411601 89.78812801775953 H 0.0 **** 0.06
25491 C 1.298880897237348 33.11569756696147 48.28352375773541 C 0.0 **** -0.24
25492 H 2.089902265954727 33.84893299606637 48.12522112596031 H 0.0 **** 0.06
25493 H 0.8369718623934741 33.28326541814661 49.25749391674428 H 0.0 **** 0.06
25494 H 1.7211356045122201 32.11138017199724 48.24887924708665 H 0.0 **** 0.06
25495 H 0.545461464427138 33.219806056938666 47.501302939744875 H 0.0 **** 0.06
25496 C 27.926712902871998 0.39000260176283064 113.11354820365528 C 0.0 **** -0.24
25497 H 28.55622650687809 0.37767727270809814 114.00332256695847 H 0.0 **** 0.06
25498 H 27.752000759767498 -0.6322901756473129 112.77795789078922 H 0.0 **** 0.06
25499 H 28.42499469509565 0.9532454686626295 112.32374094810132 H 0.0 **** 0.06
25500 H 26.97303166762717 0.8626236134547867 113.3494723679728 H 0.0 **** 0.06
25501 C 82.83707924160807 124.21799510996277 60.33180979033311 C 0.0 **** -0.24
25502 H 83.67945833668334 124.89279987230893 60.4819086488161 H 0.0 **** 0.06
25503 H 83.20464091781453 123.24417938168503 60.007083614089865 H 0.0 **** 0.06
25504 H 82.17291038933348 124.62833773815542 59.57155434815287 H 0.0 **** 0.06
25505 H 82.29039401147487 124.10610282292731 61.268895249615824 H 0.0 **** 0.06
25506 C 121.00941642168843 94.29331296789417 88.50743124092506 C 0.0 **** -0.24
25507 H 121.6442103017605 94.4016246683109 89.38610520810477 H 0.0 **** 0.06
25508 H 121.6284830961945 94.29332216247309 87.61014969470622 H 0.0 **** 0.06
25509 H 120.3050623774295 95.12405363341074 88.4625197435246 H 0.0 **** 0.06
25510 H 120.45915798324536 93.3542951747827 88.5693905579656 H 0.0 **** 0.06
25511 C 11.0707156767848 28.831907946588757 69.37947550403877 C 0.0 **** -0.24
25512 H 10.385896718771392 29.34085514133669 68.70107336532686 H 0.0 **** 0.06
25513 H 10.753480070752062 28.99949573101938 70.40896889279242 H 0.0 **** 0.06
25514 H 12.077348819420536 29.225655158166347 69.24032976937553 H 0.0 **** 0.06
25515 H 11.065871549750284 27.76321815829084 69.16690237468256 H 0.0 **** 0.06
25516 C 103.25822208980551 86.19516260401265 36.86379480215291 C 0.0 **** -0.24
25517 H 102.94210098713253 87.21871684048298 37.067355432920436 H 0.0 **** 0.06
25518 H 104.30760230635815 86.07849722158313 37.13287101617348 H 0.0 **** 0.06
25519 H 103.12732274870152 85.97912070368892 35.80355711337998 H 0.0 **** 0.06
25520 H 102.65298272355639 85.50495748476679 37.451940139069734 H 0.0 **** 0.06
25521 C 76.6591666514455 55.955462320949906 66.65028146708971 C 0.0 **** -0.24
25522 H 77.66636704929682 55.85651208929512 66.2445414538068 H 0.0 **** 0.06
25523 H 76.03920261532325 55.13620289312041 66.28581431403809 H 0.0 **** 0.06
25524 H 76.23039416448943 56.905483684866354 66.33038100935667 H 0.0 **** 0.06
25525 H 76.70127760040843 55.92321839839332 67.73881336083893 H 0.0 **** 0.06
25526 C 22.001409309078014 107.64737506196076 109.9552897342848 C 0.0 **** -0.24
25527 H 21.51329168544987 106.69775985946816 109.73577694255971 H 0.0 **** 0.06
25528 H 23.057163582294265 107.58253264443609 109.69050467605291 H 0.0 **** 0.06
25529 H 21.906698981731836 107.86650107227369 111.01874751118419 H 0.0 **** 0.06
25530 H 21.529089114599458 108.44114063667682 109.37655443002365 H 0.0 **** 0.06
25531 C 93.94642309231132 105.23880153507798 82.69836865785058 C 0.0 **** -0.24
25532 H 94.7477425116414 105.08323325885601 81.97587407795507 H 0.0 **** 0.06
25533 H 92.98315808655308 105.18132976874244 82.1891011816635 H 0.0 **** 0.06
25534 H 94.05605076407913 106.22189355348513 83.15669887531858 H 0.0 **** 0.06
25535 H 93.9965738414455 104.470148484525 83.469281151569 H 0.0 **** 0.06
25536 C 75.20019560370312 76.1706466328115 28.242915262578045 C 0.0 **** -0.24
25537 H 75.7637672391817 75.3424884083808 28.673923074972222 H 0.0 **** 0.06
25538 H 75.51453404121904 76.32520033356093 27.210781937094445 H 0.0 **** 0.06
25539 H 75.38757512593733 77.07547676760692 28.820407260122522 H 0.0 **** 0.06
25540 H 74.13630627339964 75.93713328998007 28.269157665329786 H 0.0 **** 0.06
25541 C 23.584257619715522 78.80830058435342 33.369604589854305 C 0.0 **** -0.24
25542 H 24.16414963000723 78.7092193874357 34.28664647758933 H 0.0 **** 0.06
25543 H 23.24591972852108 77.82358950254212 33.045551632184356 H 0.0 **** 0.06
25544 H 24.205432656422502 79.25305811889446 32.592261031896896 H 0.0 **** 0.06
25545 H 22.720199170188955 79.44739715615705 33.55348040380227 H 0.0 **** 0.06
25546 C 21.49629293338876 103.16933622938821 87.15975427558652 C 0.0 **** -0.24
25547 H 20.49457788128619 102.78148419916853 86.9764555311873 H 0.0 **** 0.06
25548 H 22.120192230459224 102.99318688126789 86.28356606805153 H 0.0 **** 0.06
25549 H 21.92942593519723 102.6635588890195 88.02221050394684 H 0.0 **** 0.06
25550 H 21.43981158377224 104.24094689833932 87.35732267099752 H 0.0 **** 0.06
25551 C 119.18932013897378 99.73079887941117 107.19088201886869 C 0.0 **** -0.24
25552 H 118.9967776834298 99.58256451102764 106.12843594131317 H 0.0 **** 0.06
25553 H 120.25251557450702 99.59790140096919 107.38938239190476 H 0.0 **** 0.06
25554 H 118.61879625003164 99.00268830149048 107.76813605861892 H 0.0 **** 0.06
25555 H 118.88784527804359 100.73826062687962 107.47743818466002 H 0.0 **** 0.06
25556 C 80.04949447493979 41.74330134494579 53.281421651900416 C 0.0 **** -0.24
25557 H 79.16731823400929 41.91172622640418 53.89817507627674 H 0.0 **** 0.06
25558 H 79.93018508283524 42.25688608292974 52.32712676872865 H 0.0 **** 0.06
25559 H 80.17235730956881 40.67504962258869 53.106874767994725 H 0.0 **** 0.06
25560 H 80.93019696138896 42.13029185516517 53.795274991241854 H 0.0 **** 0.06
25561 C 75.49926442719322 90.11235980672635 54.02968168433162 C 0.0 **** -0.24
25562 H 74.60188498889254 90.54033471314878 54.47686659870324 H 0.0 **** 0.06
25563 H 75.69655303162124 90.59955506849133 53.07450226668888 H 0.0 **** 0.06
25564 H 75.3527017059122 89.0450655784789 53.86989432450538 H 0.0 **** 0.06
25565 H 76.34682287863227 90.26793843507582 54.697961360401294 H 0.0 **** 0.06
25566 C 27.549079333287636 105.3374026359703 27.204092370815204 C 0.0 **** -0.24
25567 H 27.57694632020059 106.41028798828384 27.014002515573964 H 0.0 **** 0.06
25568 H 28.03652961413323 105.12437819586299 28.15664296719109 H 0.0 **** 0.06
25569 H 28.069550266440046 104.81271765601524 26.4033624872624 H 0.0 **** 0.06
25570 H 26.51178464549369 105.00273577260373 27.244224754464142 H 0.0 **** 0.06
25571 C 26.21454376936819 94.84267388878891 38.00849450860375 C 0.0 **** -0.24
25572 H 26.300145385806246 95.89530835424944 37.73966979374586 H 0.0 **** 0.06
25573 H 27.13715057959945 94.3250185929221 37.746822288471435 H 0.0 **** 0.06
25574 H 25.380727617326187 94.3962095610583 37.46757132908937 H 0.0 **** 0.06
25575 H 26.04102755962512 94.7555596070539 39.0817232865341 H 0.0 **** 0.06
25576 C 105.42108315295431 118.11537506997615 45.562686151506455 C 0.0 **** -0.24
25577 H 104.81559441062407 117.41556251523652 44.986000342695945 H 0.0 **** 0.06
25578 H 105.9726711074473 118.764433487563 44.882060232007916 H 0.0 **** 0.06
25579 H 106.1224593555979 117.56107135769493 46.185986642105405 H 0.0 **** 0.06
25580 H 104.77144988640103 118.72024961968712 46.19614030289581 H 0.0 **** 0.06
25581 C 44.871464714073255 32.98096178793827 71.54988522004685 C 0.0 **** -0.24
25582 H 45.351449100051155 33.74342704603225 72.16365834215829 H 0.0 **** 0.06
25583 H 44.023755998482955 33.41940174622158 71.02395555922915 H 0.0 **** 0.06
25584 H 44.52350613514821 32.16864153900747 72.18814955345405 H 0.0 **** 0.06
25585 H 45.587747730725766 32.592857628078434 70.82610315449108 H 0.0 **** 0.06
25586 C 103.38257807547922 77.87194740112805 36.478076546192774 C 0.0 **** -0.24
25587 H 103.41478794087823 78.71623508356815 35.78804419704576 H 0.0 **** 0.06
25588 H 102.40202592954535 77.82695412583466 36.951336271990975 H 0.0 **** 0.06
25589 H 104.15006962425434 77.99937336422272 37.24175977534031 H 0.0 **** 0.06
25590 H 103.56541525160418 76.94799039769121 35.92961075763393 H 0.0 **** 0.06
25591 C 111.18067758872012 20.639105552431374 46.700739898141656 C 0.0 **** -0.24
25592 H 111.73679141622911 20.046982304521208 47.42771183092311 H 0.0 **** 0.06
25593 H 110.11264359081773 20.551449554179953 46.90184820500855 H 0.0 **** 0.06
25594 H 111.39349332446177 20.27318876966403 45.695710973028156 H 0.0 **** 0.06
25595 H 111.48179386798516 21.683840571850254 46.777859493211366 H 0.0 **** 0.06
25596 C 105.5452065486918 68.25917827700044 25.89415215973071 C 0.0 **** -0.24
25597 H 106.41081543178413 67.75966563501584 26.32918903884888 H 0.0 **** 0.06
25598 H 104.78274310571156 68.39706942622422 26.661467148252882 H 0.0 **** 0.06
25599 H 105.14264521806346 67.64852412030729 25.08678389611333 H 0.0 **** 0.06
25600 H 105.84573343574887 69.22995257243326 25.500753467229174 H 0.0 **** 0.06
25601 C 9.535016211139038 85.43206773161717 90.99888950144063 C 0.0 **** -0.24
25602 H 10.040076023486051 85.70103660526834 90.07128181151899 H 0.0 **** 0.06
25603 H 10.243044626993822 84.94386432376717 91.6690730128654 H 0.0 **** 0.06
25604 H 8.712165550689946 84.75101338775636 90.77991114745231 H 0.0 **** 0.06
25605 H 9.145086737195214 86.33164127118295 91.47466479978489 H 0.0 **** 0.06
25606 C 49.510256452783935 45.42104995574109 107.58177087247496 C 0.0 **** -0.24
25607 H 49.34928114818639 46.49346530617682 107.4691387049626 H 0.0 **** 0.06
25608 H 49.02882797489431 44.8944292328814 106.75750455370073 H 0.0 **** 0.06
25609 H 49.08101624192274 45.08638860803969 108.52640644056467 H 0.0 **** 0.06
25610 H 50.57956884396857 45.21116451841702 107.57261710336297 H 0.0 **** 0.06
25611 C 105.6889642549376 85.03320785819818 72.74350482057156 C 0.0 **** -0.24
25612 H 106.12681006480521 84.95853806856502 73.73891085691113 H 0.0 **** 0.06
25613 H 106.22947245503268 85.78220605641542 72.16423172085256 H 0.0 **** 0.06
25614 H 104.64212696186411 85.32496235813295 72.8284383595308 H 0.0 **** 0.06
25615 H 105.75791165866774 84.0669246056226 72.24330119372303 H 0.0 **** 0.06
25616 C 51.32037913710371 10.973570130756173 115.37664641837543 C 0.0 **** -0.24
25617 H 52.135718251180265 10.734695066616325 116.05893557988938 H 0.0 **** 0.06
25618 H 50.52417267129889 10.237974667095273 115.48999223202233 H 0.0 **** 0.06
25619 H 51.688147176565714 10.957700799452198 114.35096737040146 H 0.0 **** 0.06
25620 H 50.93366114862028 11.967094650762135 115.60759886654594 H 0.0 **** 0.06
25621 C 28.58831640593695 27.423747923102496 49.356311450728725 C 0.0 **** -0.24
25622 H 28.511241834246903 27.194592904024375 50.41955988836159 H 0.0 **** 0.06
25623 H 28.468550175377516 26.506973869155786 48.77724306073907 H 0.0 **** 0.06
25624 H 29.56430434793532 27.861244923231027 49.14909766209311 H 0.0 **** 0.06
25625 H 27.806650222458188 28.132589610417767 49.08092225143099 H 0.0 **** 0.06
25626 C 115.12391987002465 76.06670775960174 118.87425180512919 C 0.0 **** -0.24
25627 H 115.07432076912673 76.8876156830498 118.15933377982621 H 0.0 **** 0.06
25628 H 115.03449650520531 76.46153915654423 119.88729348553127 H 0.0 **** 0.06
25629 H 116.07740418658408 75.54949799897241 118.76821682592765 H 0.0 **** 0.06
25630 H 114.30861704862976 75.36873086742332 118.68315682652984 H 0.0 **** 0.06
25631 C 123.954291939525 8.083224386765437 83.57972148921299 C 0.0 **** -0.24
25632 H 123.53561623602138 8.061236594496556 84.58519293415769 H 0.0 **** 0.06
25633 H 124.74458151727379 7.33704616056847 83.49931546238045 H 0.0 **** 0.06
25634 H 124.36622001496862 9.072722057042895 83.3788673543571 H 0.0 **** 0.06
25635 H 123.17074998983625 7.861892734953589 82.85551020595696 H 0.0 **** 0.06
25636 C 99.29845389163964 65.64264072577764 14.075381424479986 C 0.0 **** -0.24
25637 H 99.70675997519794 66.61063328001595 13.785213792948866 H 0.0 **** 0.06
25638 H 98.30945082000545 65.7809311412609 14.510813767483171 H 0.0 **** 0.06
25639 H 99.9566768030488 65.17585830125051 14.808780717630555 H 0.0 **** 0.06
25640 H 99.2230823439503 65.00197471162738 13.196691546308273 H 0.0 **** 0.06
25641 C 54.91953818441229 50.781894756312155 118.0763389668026 C 0.0 **** -0.24
25642 H 53.929880618129914 50.78832197099678 117.61864764654165 H 0.0 **** 0.06
25643 H 54.94597154431206 51.50188767014046 118.89431341154257 H 0.0 **** 0.06
25644 H 55.6662262816637 51.05348249793237 117.32896236419484 H 0.0 **** 0.06
25645 H 55.13562737950676 49.78533717599397 118.46104553138345 H 0.0 **** 0.06
25646 C 28.60111623191689 18.859298432007904 26.3072194519985 C 0.0 **** -0.24
25647 H 28.320055350833563 17.8267797611623 26.09732724529207 H 0.0 **** 0.06
25648 H 27.743380094384484 19.510035798791563 26.13725974366733 H 0.0 **** 0.06
25649 H 29.41773313466286 19.1543643453721 25.64833885188041 H 0.0 **** 0.06
25650 H 28.923253290037174 18.943814518008338 27.344874225709965 H 0.0 **** 0.06
25651 C 41.63692860946679 38.047638137474166 102.80181797963888 C 0.0 **** -0.24
25652 H 42.534669780504856 37.565770975764835 102.41532929479001 H 0.0 **** 0.06
25653 H 40.88429513942751 37.28988645713733 103.02116928014374 H 0.0 **** 0.06
25654 H 41.24687732920336 38.7407984157972 102.05581155215572 H 0.0 **** 0.06
25655 H 41.88008032734956 38.594176988521454 103.71277473505955 H 0.0 **** 0.06
25656 C 45.92971893483314 71.96335259806591 40.574610915150515 C 0.0 **** -0.24
25657 H 46.48539146271488 72.63037322695044 41.23363232895173 H 0.0 **** 0.06
25658 H 46.49306748229738 71.04026573145353 40.43435824145246 H 0.0 **** 0.06
25659 H 45.781084231879035 72.44817008452122 39.60958425550746 H 0.0 **** 0.06
25660 H 44.96233036041048 71.7345315230969 41.02096271890713 H 0.0 **** 0.06
25661 C 34.44356889453073 18.615723358939135 14.17096696904423 C 0.0 **** -0.24
25662 H 34.35698155032898 17.532048835939406 14.248030904585914 H 0.0 **** 0.06
25663 H 35.438280610654544 18.924131509017798 14.492067730167111 H 0.0 **** 0.06
25664 H 33.69333823737688 19.085735729498197 14.807811616828573 H 0.0 **** 0.06
25665 H 34.28406717518851 18.920370954438482 13.136173848735378 H 0.0 **** 0.06
25666 C 96.64282333216191 108.7272426055685 2.3783488137807183 C 0.0 **** -0.24
25667 H 96.37480687715828 109.37340690572628 1.5423095826881479 H 0.0 **** 0.06
25668 H 95.92800389771665 108.86870286113852 3.1901338712864344 H 0.0 **** 0.06
25669 H 97.64367936095576 108.9803364916998 2.7268762234431563 H 0.0 **** 0.06
25670 H 96.6223949589666 107.68677716654524 2.0537058196365763 H 0.0 **** 0.06
25671 C 27.92412062701468 29.759570012162754 52.23548382953288 C 0.0 **** -0.24
25672 H 27.415116234708037 29.45429288025568 51.3212009885838 H 0.0 **** 0.06
25673 H 28.34594888963793 28.881472653905433 52.7262737520597 H 0.0 **** 0.06
25674 H 27.211470008707103 30.24291034886727 52.90290937607591 H 0.0 **** 0.06
25675 H 28.72390507316522 30.457959956281684 51.98973595819443 H 0.0 **** 0.06
25676 C 107.06632868893317 55.38019768782978 81.4479679205051 C 0.0 **** -0.24
25677 H 107.78842101189562 55.41365565508386 80.63189134880379 H 0.0 **** 0.06
25678 H 107.5017906961663 55.8349160412462 82.33737093968618 H 0.0 **** 0.06
25679 H 106.8059534278878 54.34298309799024 81.65967371310593 H 0.0 **** 0.06
25680 H 106.16951209701804 55.928206650977984 81.1609839100773 H 0.0 **** 0.06
25681 C 105.04964116312263 35.04724944518838 9.053328986060563 C 0.0 **** -0.24
25682 H 105.09833450165792 36.04983156219514 9.479281813778243 H 0.0 **** 0.06
25683 H 104.0068159946575 34.747094634203414 8.950628130575183 H 0.0 **** 0.06
25684 H 105.56788996339958 34.348340107754964 9.709968638424613 H 0.0 **** 0.06
25685 H 105.52660810537017 35.047109492439276 8.07279328104633 H 0.0 **** 0.06
25686 C 34.88952671109621 9.24699275694951 72.10059051403289 C 0.0 **** -0.24
25687 H 34.75039040197413 10.317695243762131 72.24811999740405 H 0.0 **** 0.06
25688 H 35.866658374077645 9.066567235497843 71.64965239195328 H 0.0 **** 0.06
25689 H 34.10966732341143 8.866358862169562 71.44057088395488 H 0.0 **** 0.06
25690 H 34.83317964121673 8.7369217911168 73.06187001929408 H 0.0 **** 0.06
25691 C 77.45532990618808 99.41508846382986 20.359286695567135 C 0.0 **** -0.24
25692 H 76.46911990110944 99.09177564264535 20.02896071470795 H 0.0 **** 0.06
25693 H 77.44610760504243 99.56078442789253 21.440442769099462 H 0.0 **** 0.06
25694 H 77.71349786515036 100.35321445096181 19.86787887083173 H 0.0 **** 0.06
25695 H 78.19317142776748 98.65489599525607 20.101116107536484 H 0.0 **** 0.06
25696 C 112.44462398351459 15.182687049647939 0.8372061177797718 C 0.0 **** -0.24
25697 H 112.65908793285507 14.114262542938814 0.8668373701461007 H 0.0 **** 0.06
25698 H 112.62888721954585 15.617500755655591 1.8206464661937076 H 0.0 **** 0.06
25699 H 111.40085204538377 15.336098266655693 0.562446463915478 H 0.0 **** 0.06
25700 H 113.08852298573044 15.662389848770733 0.1007490910513269 H 0.0 **** 0.06
25701 C 84.17082310641334 121.75089937141627 102.06704017900529 C 0.0 **** -0.24
25702 H 84.16585048063101 120.68673632478092 102.30611772273755 H 0.0 **** 0.06
25703 H 83.18643364972837 122.17285174635944 102.27194832653225 H 0.0 **** 0.06
25704 H 84.41064316459963 121.884860656223 101.01247420557877 H 0.0 **** 0.06
25705 H 84.91824385388142 122.25705571876864 102.67727426352667 H 0.0 **** 0.06
25706 C 69.48522758837606 29.503343187503674 9.76045148290298 C 0.0 **** -0.24
25707 H 69.36332756359381 30.082155758769034 8.844874013891484 H 0.0 **** 0.06
25708 H 70.51193824149016 29.14290165850963 9.829566495909347 H 0.0 **** 0.06
25709 H 68.80224557211976 28.65429952186281 9.745853644280373 H 0.0 **** 0.06
25710 H 69.2626642183977 30.1339329220192 10.620838491643497 H 0.0 **** 0.06
25711 C 84.93532108433874 89.11719283455375 53.83812000476745 C 0.0 **** -0.24
25712 H 85.26688455078389 88.9363765225317 54.86131056062301 H 0.0 **** 0.06
25713 H 84.04947117976609 89.75298899577069 53.85056788302441 H 0.0 **** 0.06
25714 H 84.69364469870894 88.16628077131372 53.36221399024576 H 0.0 **** 0.06
25715 H 85.7305711295283 89.61071551346254 53.28116009989647 H 0.0 **** 0.06
25716 C 27.369545065202317 92.44838934483516 53.200969977798906 C 0.0 **** -0.24
25717 H 27.305520125483696 92.65337690995248 54.26960911831513 H 0.0 **** 0.06
25718 H 28.315060701690555 92.83006291931167 52.81436523612706 H 0.0 **** 0.06
25719 H 26.54240315986135 92.93830084580678 52.68806096915817 H 0.0 **** 0.06
25720 H 27.316100919325464 91.3729166559004 53.032830429218734 H 0.0 **** 0.06
25721 C 68.59490280207952 113.21454662913901 47.24971348943582 C 0.0 **** -0.24
25722 H 68.25427145028706 113.79029958982355 46.388964667780286 H 0.0 **** 0.06
25723 H 67.96096065026067 112.33622339761975 47.3741256844705 H 0.0 **** 0.06
25724 H 68.5372348224921 113.83340846673022 48.14540828289523 H 0.0 **** 0.06
25725 H 69.62663111322873 112.90053358450784 47.09109377578929 H 0.0 **** 0.06
25726 C 89.2904771263971 21.120245795741752 76.38794906787984 C 0.0 **** -0.24
25727 H 90.16117928290075 21.576472767800908 76.8590450419083 H 0.0 **** 0.06
25728 H 88.62374749292616 21.90235516696373 76.02272267863157 H 0.0 **** 0.06
25729 H 88.7641692412873 20.50465646424246 77.11664271407028 H 0.0 **** 0.06
25730 H 89.61414550537967 20.49889672377728 75.55286714172564 H 0.0 **** 0.06
25731 C 91.87873564007629 81.49870333395484 70.88831334526395 C 0.0 **** -0.24
25732 H 92.45489728442413 81.68258150104418 71.79544636550565 H 0.0 **** 0.06
25733 H 91.1626455628903 80.69689038680633 71.0698615082922 H 0.0 **** 0.06
25734 H 92.55241063284458 81.20964137727975 70.08230724140782 H 0.0 **** 0.06
25735 H 91.34468671469133 82.4058604875018 70.60701047167481 H 0.0 **** 0.06
25736 C 114.78727352017117 93.92228706636914 50.56688497367861 C 0.0 **** -0.24
25737 H 114.35056043332435 94.72096827780263 49.967363743223245 H 0.0 **** 0.06
25738 H 114.0089340075227 93.4567499938581 51.17363672085699 H 0.0 **** 0.06
25739 H 115.55717344728225 94.33575018359008 51.218093114103084 H 0.0 **** 0.06
25740 H 115.23101265594042 93.17482663521989 49.908969926613594 H 0.0 **** 0.06
25741 C 102.71774520003294 106.73206495871877 4.852650506196518 C 0.0 **** -0.24
25742 H 103.55979421370091 107.05469591259832 4.241092347333375 H 0.0 **** 0.06
25743 H 102.10712086860383 106.02697388199512 4.287723729487375 H 0.0 **** 0.06
25744 H 102.11327755657646 107.59876825790835 5.1250860208721605 H 0.0 **** 0.06
25745 H 103.08872463733144 106.24999929901193 5.756727728867151 H 0.0 **** 0.06
25746 C 60.46583031155225 99.15799253625315 86.42384786163365 C 0.0 **** -0.24
25747 H 59.83317775891916 99.91905358218739 86.88225992477265 H 0.0 **** 0.06
25748 H 61.314293615052605 99.63774546990501 85.93489908405485 H 0.0 **** 0.06
25749 H 59.88804741660209 98.60156716718987 85.68543708592398 H 0.0 **** 0.06
25750 H 60.827091582588906 98.47567036532345 87.19232126841558 H 0.0 **** 0.06
25751 C 89.28273676745494 120.84298646671859 73.84669324483141 C 0.0 **** -0.24
25752 H 89.71813449563439 121.48096240975694 74.61627252004641 H 0.0 **** 0.06
25753 H 88.88989689624907 121.46330666050248 73.04079968752885 H 0.0 **** 0.06
25754 H 88.47499167827186 120.25279058971981 74.27857327667923 H 0.0 **** 0.06
25755 H 90.04994403876731 120.1760454502744 73.45188638805004 H 0.0 **** 0.06
25756 C 97.43235507985787 13.530429232153608 97.93200523634448 C 0.0 **** -0.24
25757 H 96.75614059180236 14.367723536457135 97.76020620473435 H 0.0 **** 0.06
25758 H 97.42853250320024 13.271886303519892 98.9910891193748 H 0.0 **** 0.06
25759 H 98.44162449652379 13.810939622781262 97.62933393562918 H 0.0 **** 0.06
25760 H 97.10363870844435 12.672044309231296 97.3464093328381 H 0.0 **** 0.06
25761 C 63.17914898759584 105.87187014303888 117.73343108203989 C 0.0 **** -0.24
25762 H 63.12355613475626 106.92453431200099 118.00992749161884 H 0.0 **** 0.06
25763 H 63.8616099254466 105.75413906378415 116.89097916374152 H 0.0 **** 0.06
25764 H 62.18792441420531 105.51776545082853 117.45070081175356 H 0.0 **** 0.06
25765 H 63.544480495361285 105.29147710942476 118.58075305887678 H 0.0 **** 0.06
25766 C 28.904684239567985 22.14492260076497 41.04616125037802 C 0.0 **** -0.24
25767 H 28.21104298740758 21.568026572983968 40.43409383679693 H 0.0 **** 0.06
25768 H 29.917808983289234 22.02073131511122 40.66310967348022 H 0.0 **** 0.06
25769 H 28.85986456940236 21.79322169233103 42.07638419684645 H 0.0 **** 0.06
25770 H 28.62951763788152 23.199829124518487 41.01054712066923 H 0.0 **** 0.06
25771 C 94.13514622508521 89.72591577734997 60.73812419942685 C 0.0 **** -0.24
25772 H 93.34457853687604 90.4396345750074 60.97035883770171 H 0.0 **** 0.06
25773 H 95.04457889640645 90.00486689683503 61.27079316226204 H 0.0 **** 0.06
25774 H 94.3253082050858 89.73103431580554 59.665353547702836 H 0.0 **** 0.06
25775 H 93.82386278441788 88.7279622383137 61.046930067512974 H 0.0 **** 0.06
25776 C 4.3488550714148175 88.30275973837416 10.563144735616454 C 0.0 **** -0.24
25777 H 4.52078237617701 87.26260074340877 10.286589194759202 H 0.0 **** 0.06
25778 H 3.329623558633898 88.585238378344 10.297645766184385 H 0.0 **** 0.06
25779 H 5.053254752453739 88.94055188871363 10.029156000394352 H 0.0 **** 0.06
25780 H 4.492114481259819 88.4227406560679 11.636210407441471 H 0.0 **** 0.06
25781 C 34.177447903539445 32.8878587616598 113.15281294331754 C 0.0 **** -0.24
25782 H 34.956526986765965 32.26020099966314 113.58638331339597 H 0.0 **** 0.06
25783 H 34.48694838870614 33.215937841581024 112.15984801747592 H 0.0 **** 0.06
25784 H 34.015497356043255 33.75740389780492 113.78924435736752 H 0.0 **** 0.06
25785 H 33.252805877699416 32.31661460984549 113.07512827266609 H 0.0 **** 0.06
25786 C 16.327219201087217 69.49011972726034 120.27408906256923 C 0.0 **** -0.24
25787 H 15.361892273896217 69.89270771831387 119.9646029940285 H 0.0 **** 0.06
25788 H 16.2382891805874 69.0641049685382 121.27420938842855 H 0.0 **** 0.06
25789 H 17.066970138157615 70.29082820765709 120.28429725947015 H 0.0 **** 0.06
25790 H 16.639319070971396 68.71558775011168 119.57405295302269 H 0.0 **** 0.06
25791 C 99.72535983975256 69.36023995047015 38.067001200674724 C 0.0 **** -0.24
25792 H 99.65451493545683 69.78633976859732 39.0678761498242 H 0.0 **** 0.06
25793 H 100.77127115400214 69.16522127691755 37.8288962312194 H 0.0 **** 0.06
25794 H 99.31220520351397 70.06296353922045 37.342736357071715 H 0.0 **** 0.06
25795 H 99.16277679205979 68.42732144560986 38.02937019134964 H 0.0 **** 0.06
25796 C 122.22967239346792 109.74631443476397 70.07187045494584 C 0.0 **** -0.24
25797 H 121.62178252647624 110.04362984403173 69.21718502697945 H 0.0 **** 0.06
25798 H 123.14890985587002 109.2791548051261 69.71886611848595 H 0.0 **** 0.06
25799 H 121.67310110411307 109.03585142358008 70.68338041936192 H 0.0 **** 0.06
25800 H 122.47448513601876 110.62571229996968 70.66798525172203 H 0.0 **** 0.06
25801 C 76.13780849550972 31.14717439655071 32.063291453090784 C 0.0 **** -0.24
25802 H 75.60448864549844 30.464139775372587 32.72452919872046 H 0.0 **** 0.06
25803 H 77.15970162150566 30.792899382160343 31.923397110783924 H 0.0 **** 0.06
25804 H 76.15606759641966 32.14263358259919 32.50622405163523 H 0.0 **** 0.06
25805 H 75.63173980843683 31.187870829996058 31.098723677332742 H 0.0 **** 0.06
25806 C 38.0461034980967 62.3046760067962 70.76783698146428 C 0.0 **** -0.24
25807 H 37.93490928237241 62.12494881982289 69.69815397522996 H 0.0 **** 0.06
25808 H 37.21797550743451 62.92001592910026 71.11996272011845 H 0.0 **** 0.06
25809 H 38.98766344936484 62.820303440250015 70.95307963601016 H 0.0 **** 0.06
25810 H 38.04224660016178 61.3518073464552 71.29737183628063 H 0.0 **** 0.06
25811 C 32.233543067435676 48.83181677254839 51.82687024384248 C 0.0 **** -0.24
25812 H 32.67830976964834 48.00901852773842 51.26763835398435 H 0.0 **** 0.06
25813 H 32.43283595134335 48.6967906423105 52.890706736535975 H 0.0 **** 0.06
25814 H 31.1567548447525 48.8460465343999 51.65724016674628 H 0.0 **** 0.06
25815 H 32.66593773756355 49.77455582034426 51.49297116290137 H 0.0 **** 0.06
25816 C 32.992302802808325 85.3977740761371 79.7912610608916 C 0.0 **** -0.24
25817 H 32.58178116587746 86.04821788639478 79.01917782590749 H 0.0 **** 0.06
25818 H 33.194203124818245 85.9830715305136 80.68881434721044 H 0.0 **** 0.06
25819 H 33.91914474151358 84.95019490279387 79.43278986460984 H 0.0 **** 0.06
25820 H 32.27441384362925 84.61089263411824 80.0231441285141 H 0.0 **** 0.06
25821 C 35.83428515612963 108.88951315119726 17.077174161513014 C 0.0 **** -0.24
25822 H 35.44704490849762 108.8814547230885 18.09565475416263 H 0.0 **** 0.06
25823 H 36.191968912237925 109.89072500628475 16.833284940059414 H 0.0 **** 0.06
25824 H 35.040220003674534 108.60913212329388 16.385237957374382 H 0.0 **** 0.06
25825 H 36.65670911163333 108.17909124464691 16.995539365073064 H 0.0 **** 0.06
25826 C 114.2273996946447 114.65775761968266 35.64251297552298 C 0.0 **** -0.24
25827 H 115.0089384813335 115.15915980545992 35.071314498611414 H 0.0 **** 0.06
25828 H 113.41235366492256 114.37795715778023 34.97428739067421 H 0.0 **** 0.06
25829 H 113.85109488544933 115.33119604343663 36.41247990997552 H 0.0 **** 0.06
25830 H 114.63764496208323 113.76222047194379 36.11071893428897 H 0.0 **** 0.06
25831 C 62.86090300189203 54.72962165910597 117.51075832965506 C 0.0 **** -0.24
25832 H 63.60381334418824 53.933479755717556 117.46181956445261 H 0.0 **** 0.06
25833 H 62.06886118915541 54.5315025235749 116.788061073964 H 0.0 **** 0.06
25834 H 63.33419814999161 55.68313530129542 117.27979499866166 H 0.0 **** 0.06
25835 H 62.436889329189455 54.768431260201794 118.51446344585321 H 0.0 **** 0.06
25836 C 42.581502863515425 114.45236576303715 87.31805905193448 C 0.0 **** -0.24
25837 H 41.73133987149099 115.135161661741 87.28627137503331 H 0.0 **** 0.06
25838 H 43.501123054998295 115.01047826476757 87.13824269516317 H 0.0 **** 0.06
25839 H 42.46271858905778 113.68858556261195 86.54937262571649 H 0.0 **** 0.06
25840 H 42.6287816796916 113.9778339244874 88.29809626722195 H 0.0 **** 0.06
25841 C 123.58183834073425 79.53141778615935 85.72977900847408 C 0.0 **** -0.24
25842 H 122.63310914620911 79.98404529742024 86.01814502445885 H 0.0 **** 0.06
25843 H 123.46551058504264 79.02083734780882 84.77390340639153 H 0.0 **** 0.06
25844 H 123.88632311646508 78.81260190450584 86.49070178591379 H 0.0 **** 0.06
25845 H 124.34202837579724 80.30687746001621 85.63813793547767 H 0.0 **** 0.06
25846 C 33.21642432550624 60.69814150558564 98.0647780090399 C 0.0 **** -0.24
25847 H 32.60419920702617 61.045594647716825 98.89677464792712 H 0.0 **** 0.06
25848 H 32.92865431013229 61.228462066778505 97.15648495149614 H 0.0 **** 0.06
25849 H 33.06596721463677 59.62851457948389 97.9244016758537 H 0.0 **** 0.06
25850 H 34.2667836633463 60.89230331683976 98.28063705989341 H 0.0 **** 0.06
25851 C 48.18713315499161 52.20890733754571 80.86768538334019 C 0.0 **** -0.24
25852 H 47.63625006148533 52.48719743907748 81.76584133688777 H 0.0 **** 0.06
25853 H 48.61502810490987 53.1019054065237 80.41282712855173 H 0.0 **** 0.06
25854 H 47.50879951083614 51.729074032293205 80.16139844926329 H 0.0 **** 0.06
25855 H 48.98635893890878 51.51654912524101 81.13156403071815 H 0.0 **** 0.06
25856 C 42.543985731427796 119.59251304735011 24.526387349425306 C 0.0 **** -0.24
25857 H 42.27991364774104 120.2780437156797 23.720986605635517 H 0.0 **** 0.06
25858 H 43.62302147609822 119.61038187006929 24.67996886042249 H 0.0 **** 0.06
25859 H 42.231676013379655 118.58212157430953 24.25967308903185 H 0.0 **** 0.06
25860 H 42.040373999225835 119.89864816441798 25.442835478383103 H 0.0 **** 0.06
25861 C 68.76403792357297 124.15063687472957 8.793672920103404 C 0.0 **** -0.24
25862 H 69.57854977825488 124.87473041749695 8.837499516884805 H 0.0 **** 0.06
25863 H 68.03160971415016 124.3803240522939 9.567796583049414 H 0.0 **** 0.06
25864 H 69.1615191291312 123.14797055553709 8.954074609569432 H 0.0 **** 0.06
25865 H 68.2878042281456 124.20040905729664 7.814977435489141 H 0.0 **** 0.06
25866 C 5.665505613514394 69.26607061512789 72.63222250717615 C 0.0 **** -0.24
25867 H 6.461054041788795 68.54666594976081 72.82296910417696 H 0.0 **** 0.06
25868 H 4.932291162008919 69.21768462739377 73.43835659168909 H 0.0 **** 0.06
25869 H 5.1809418334682285 69.02856488902285 71.6855321436777 H 0.0 **** 0.06
25870 H 6.087839638545361 70.2696191264287 72.58374520327462 H 0.0 **** 0.06
25871 C 72.75904302965446 49.26992157223967 48.4783950046765 C 0.0 **** -0.24
25872 H 73.70629974567049 49.81023659974217 48.5127783761837 H 0.0 **** 0.06
25873 H 72.59451497041871 48.7669784757359 49.43146765707347 H 0.0 **** 0.06
25874 H 72.79190070735781 48.53120843880857 47.677744661949106 H 0.0 **** 0.06
25875 H 71.94669485866885 49.97278752333218 48.29202536912954 H 0.0 **** 0.06
25876 C 12.04612734836589 15.05787189812935 46.58640168641671 C 0.0 **** -0.24
25877 H 12.625405720865515 15.446466484503446 45.74843775131539 H 0.0 **** 0.06
25878 H 11.057595750235823 14.759132770764836 46.23682201098123 H 0.0 **** 0.06
25879 H 11.945330561358631 15.831031143643145 47.3479825995169 H 0.0 **** 0.06
25880 H 12.558968980769283 14.193974065515476 47.01116961186743 H 0.0 **** 0.06
25881 C 63.96539806498629 119.37927457883433 27.126110237033316 C 0.0 **** -0.24
25882 H 63.32151007596602 118.50935907719872 26.99909861897663 H 0.0 **** 0.06
25883 H 65.00932161333188 119.07255216381259 27.051258616656526 H 0.0 **** 0.06
25884 H 63.78692186028562 119.8234946201191 28.10514674536128 H 0.0 **** 0.06
25885 H 63.74464642358191 120.11139292482085 26.34944484027642 H 0.0 **** 0.06
25886 C 3.7622433587421824 42.85871356296834 112.41136071365591 C 0.0 **** -0.24
25887 H 4.449183328263416 42.351680222492895 111.73434126394933 H 0.0 **** 0.06
25888 H 4.0253102743319005 42.62000728542491 113.44165377675164 H 0.0 **** 0.06
25889 H 2.742835490748462 42.52803976231822 112.20948152421781 H 0.0 **** 0.06
25890 H 3.8309788821954953 43.935364614376645 112.25838488042832 H 0.0 **** 0.06
25891 C 65.1662874296052 96.83623220269368 79.46870937029769 C 0.0 **** -0.24
25892 H 65.31283369198891 95.93446265076471 80.06266268495364 H 0.0 **** 0.06
25893 H 66.13570759472847 97.24203224482557 79.18008234856012 H 0.0 **** 0.06
25894 H 64.62364668379311 97.57458907825207 80.05827175436627 H 0.0 **** 0.06
25895 H 64.59345166171138 96.59251916804112 78.57387259423336 H 0.0 **** 0.06
25896 C 64.17042104141693 23.791769422449562 107.70211910294724 C 0.0 **** -0.24
25897 H 65.10477555594697 24.341495045612298 107.58704475052599 H 0.0 **** 0.06
25898 H 63.87753400247139 23.790391520289667 108.75205243089475 H 0.0 **** 0.06
25899 H 64.30894373589979 22.764866640055914 107.36241496685327 H 0.0 **** 0.06
25900 H 63.39226514358931 24.26914677298896 107.10746297246804 H 0.0 **** 0.06
25901 C 119.4878225229865 36.18238533056996 79.23491620243509 C 0.0 **** -0.24
25902 H 120.45373797352778 36.66269291266872 79.07842760849583 H 0.0 **** 0.06
25903 H 118.88316379379279 36.28260299667403 78.33297994993882 H 0.0 **** 0.06
25904 H 118.97646513830858 36.65879776335805 80.07076455722763 H 0.0 **** 0.06
25905 H 119.6398606200421 35.1264041096689 79.45518356634363 H 0.0 **** 0.06
25906 C 109.19218769473392 89.35811037023583 91.17209129818605 C 0.0 **** -0.24
25907 H 110.2124757321915 89.02258882103015 90.9875857670628 H 0.0 **** 0.06
25908 H 108.600341260016 89.23871389820734 90.26399656486257 H 0.0 **** 0.06
25909 H 109.20258189788368 90.40905168827678 91.46312235673247 H 0.0 **** 0.06
25910 H 108.75295929673324 88.76412540463662 91.97282903223442 H 0.0 **** 0.06
25911 C 124.21976429727647 79.66083818292174 72.09142208596698 C 0.0 **** -0.24
25912 H 123.2267782176655 79.82422758346576 72.50950966655097 H 0.0 **** 0.06
25913 H 124.6314639755447 80.61214355362307 71.75155700288758 H 0.0 **** 0.06
25914 H 124.15166667052415 78.972993312156 71.24877872209198 H 0.0 **** 0.06
25915 H 124.87001626179975 79.23661835499138 72.85641726386723 H 0.0 **** 0.06
25916 C 115.98967164491214 10.528663423166531 55.11279417277822 C 0.0 **** -0.24
25917 H 116.6045160297488 9.946276028906404 54.42741839946851 H 0.0 **** 0.06
25918 H 116.59838675354106 10.85973103105037 55.955464319891135 H 0.0 **** 0.06
25919 H 115.16823020702802 9.912534796273139 55.477299509255104 H 0.0 **** 0.06
25920 H 115.5886964639977 11.397942942686011 54.59157854769376 H 0.0 **** 0.06
25921 C 50.785588198020676 60.28288403975358 8.107618095213223 C 0.0 **** -0.24
25922 H 50.958350089094424 61.25023735099926 7.634664956206542 H 0.0 **** 0.06
25923 H 51.38907735302493 59.522824046839304 7.6111643031407645 H 0.0 **** 0.06
25924 H 49.73041113129171 60.02216577385748 8.025441139866487 H 0.0 **** 0.06
25925 H 51.06550528931018 60.33928139256675 9.160289720527647 H 0.0 **** 0.06
25926 C 10.681582761642176 73.3236091621818 37.07349535628413 C 0.0 **** -0.24
25927 H 11.086478070603192 72.84971778188927 37.96673908792533 H 0.0 **** 0.06
25928 H 10.167177491508426 72.57726784121925 36.46776969123238 H 0.0 **** 0.06
25929 H 11.494319692796935 73.76335849982364 36.49487031243052 H 0.0 **** 0.06
25930 H 9.977990727163842 74.1034655282471 37.36338836928371 H 0.0 **** 0.06
25931 C 46.69613269234699 101.47378348970301 56.48436911442491 C 0.0 **** -0.24
25932 H 46.4230409931107 102.15229066357097 55.67683051441634 H 0.0 **** 0.06
25933 H 47.610163572671524 101.8276814209188 56.96209765139747 H 0.0 **** 0.06
25934 H 46.8589796264088 100.47469843966763 56.08054287967718 H 0.0 **** 0.06
25935 H 45.89125032146029 101.44194126709715 57.219276043056254 H 0.0 **** 0.06
25936 C 14.40194515652604 11.8109153728971 116.40390391595199 C 0.0 **** -0.24
25937 H 15.020480474109547 11.337404022043529 117.16576198778702 H 0.0 **** 0.06
25938 H 13.351896516071406 11.728101531521219 116.68393322748355 H 0.0 **** 0.06
25939 H 14.56289301122763 11.315794629357313 115.44582198263154 H 0.0 **** 0.06
25940 H 14.672795965465752 12.863612352373266 116.31826714441439 H 0.0 **** 0.06
25941 C 86.88195932223795 120.56954085520024 97.33764942557676 C 0.0 **** -0.24
25942 H 87.26131134635392 119.62453810674504 97.72722558852003 H 0.0 **** 0.06
25943 H 86.08402184967542 120.93387953910226 97.98454494311694 H 0.0 **** 0.06
25944 H 86.49441278740869 120.4180135252499 96.33083624021286 H 0.0 **** 0.06
25945 H 87.68989320700865 121.30083689440826 97.30997887383839 H 0.0 **** 0.06
25946 C 21.62687360978653 33.35562763621482 12.907440879402543 C 0.0 **** -0.24
25947 H 21.512381069465903 34.268253936226245 12.322511478795548 H 0.0 **** 0.06
25948 H 22.275156321623584 32.66192856284039 12.373466396322698 H 0.0 **** 0.06
25949 H 20.649947605485522 32.897108765472524 13.059446518677476 H 0.0 **** 0.06
25950 H 22.06937657744419 33.597363365634976 13.874390582657213 H 0.0 **** 0.06
25951 C 87.74159034583045 95.7382830577322 60.06958863160915 C 0.0 **** -0.24
25952 H 87.43364519802992 96.02211075617468 61.07531536625049 H 0.0 **** 0.06
25953 H 87.34891972342314 96.45870112455584 59.35179735609131 H 0.0 **** 0.06
25954 H 87.35563431865535 94.74553724658762 59.83784003382749 H 0.0 **** 0.06
25955 H 88.83057193517914 95.72651107572106 60.01374706036492 H 0.0 **** 0.06
25956 C 101.56137845802238 27.626207715531315 110.2199112619604 C 0.0 **** -0.24
25957 H 101.33606774149092 28.651316418838867 109.9276222306599 H 0.0 **** 0.06
25958 H 100.83071845811719 26.951422203661117 109.77322768492186 H 0.0 **** 0.06
25959 H 101.52054373288428 27.54046119806666 111.30563532990259 H 0.0 **** 0.06
25960 H 102.56095657701945 27.361098870165 109.87298809764017 H 0.0 **** 0.06
25961 C 95.81887288115965 64.70459942000286 71.94280602900528 C 0.0 **** -0.24
25962 H 96.20774206390833 64.29467746238896 71.01066577320051 H 0.0 **** 0.06
25963 H 94.75791951030364 64.92732976167866 71.82769796188774 H 0.0 **** 0.06
25964 H 96.35800383711221 65.61900197559186 72.19011853974848 H 0.0 **** 0.06
25965 H 95.95270124265143 63.97628791772718 72.74289355736579 H 0.0 **** 0.06
25966 C 30.335635228458045 16.930334590024387 98.45418302765825 C 0.0 **** -0.24
25967 H 30.24984440346273 17.468182400544237 97.509848134437 H 0.0 **** 0.06
25968 H 30.736887892161832 15.933714030025982 98.26904662026122 H 0.0 **** 0.06
25969 H 29.35132720110957 16.84571779362716 98.91419975258286 H 0.0 **** 0.06
25970 H 31.002950710679343 17.474416372670362 99.12185488973014 H 0.0 **** 0.06
25971 C 68.46241946291508 54.5069899984091 25.575806224071925 C 0.0 **** -0.24
25972 H 68.44781404281436 53.42354658398648 25.69472956934385 H 0.0 **** 0.06
25973 H 68.2348185006896 54.760678781195736 24.540072400366228 H 0.0 **** 0.06
25974 H 69.44963116494388 54.888344044632504 25.836242089595203 H 0.0 **** 0.06
25975 H 67.71574516161634 54.953636310367585 26.232551440305713 H 0.0 **** 0.06
25976 C 100.01732461508847 83.67966483022695 30.032662904112982 C 0.0 **** -0.24
25977 H 100.34183884794103 82.65650152724749 29.84614209009922 H 0.0 **** 0.06
25978 H 99.03674040918052 83.66928237166621 30.508699179401674 H 0.0 **** 0.06
25979 H 99.95841753371094 84.22008457461402 29.088084085828896 H 0.0 **** 0.06
25980 H 100.73401969407509 84.17315950488711 30.689432955300333 H 0.0 **** 0.06
25981 C 55.300731660628514 35.55461772993317 56.09006524641384 C 0.0 **** -0.24
25982 H 54.34683224095693 35.11658611778691 55.794914514982395 H 0.0 **** 0.06
25983 H 55.29358239003665 35.754593652084225 57.16090517491861 H 0.0 **** 0.06
25984 H 55.45541778026302 36.486373716206174 55.54651795005415 H 0.0 **** 0.06
25985 H 56.107007771911526 34.85913621549443 55.85512685209099 H 0.0 **** 0.06
25986 C 70.56412713970747 105.17714391795714 55.87907617369456 C 0.0 **** -0.24
25987 H 70.48542020003936 106.13151176639343 55.359848040219674 H 0.0 **** 0.06
25988 H 71.61129491762983 104.87950506389222 55.93482985360066 H 0.0 **** 0.06
25989 H 69.99938002496503 104.41984681783774 55.3335639295384 H 0.0 **** 0.06
25990 H 70.15926334230402 105.27715773211544 56.885538882539464 H 0.0 **** 0.06
25991 C 92.6328170482085 103.45631398042968 91.41478738908059 C 0.0 **** -0.24
25992 H 93.60159135014773 103.94398476840789 91.3055753443971 H 0.0 **** 0.06
25993 H 92.62016477921188 102.538626686345 90.82651647196596 H 0.0 **** 0.06
25994 H 91.8484775657338 104.1261382410359 91.06134605137986 H 0.0 **** 0.06
25995 H 92.4627571879442 103.21862153221082 92.46411220302576 H 0.0 **** 0.06
25996 C 64.9951216924659 5.789305681816501 75.216578367865 C 0.0 **** -0.24
25997 H 64.0522305509494 5.695365941307415 74.67848423991396 H 0.0 **** 0.06
25998 H 65.30351860555098 6.835374315321872 75.23073971270068 H 0.0 **** 0.06
25999 H 65.75880950893485 5.192746894001914 74.71713841924421 H 0.0 **** 0.06
26000 H 64.86691271388395 5.434329285656446 76.23912759424903 H 0.0 **** 0.06
26001 C 17.391213352083128 0.7248183159628638 27.645848988517145 C 0.0 **** -0.24
26002 H 18.16314994771639 1.2614802324418974 27.093983420372723 H 0.0 **** 0.06
26003 H 17.07219479190522 -0.14535418236170017 27.070858755487478 H 0.0 **** 0.06
26004 H 16.538820980913357 1.3833041476142398 27.812006579717547 H 0.0 **** 0.06
26005 H 17.79162847257851 0.3999582780231208 28.606228288086783 H 0.0 **** 0.06
26006 C 6.146139855937406 42.58723950117407 119.03166895319063 C 0.0 **** -0.24
26007 H 5.254431063637469 43.08909286580151 118.65448411812196 H 0.0 **** 0.06
26008 H 5.8528158314162795 41.712599483125615 119.61227774108875 H 0.0 **** 0.06
26009 H 6.708221711547935 43.27263708350602 119.66548818047772 H 0.0 **** 0.06
26010 H 6.769014602363313 42.274899890217974 118.19346627763503 H 0.0 **** 0.06
26011 C 66.48452668727168 115.77086230149894 122.84628231264354 C 0.0 **** -0.24
26012 H 65.43307398956907 115.55765605995222 123.03765630510479 H 0.0 **** 0.06
26013 H 66.59866730921824 116.14410573492688 121.82833389091282 H 0.0 **** 0.06
26014 H 67.06788480683433 114.85916618941962 122.96822130351981 H 0.0 **** 0.06
26015 H 66.83548586026967 116.52452697243405 123.55082322748771 H 0.0 **** 0.06
26016 C 105.85107527133901 39.70020277056378 19.673589571510178 C 0.0 **** -0.24
26017 H 105.60454081564173 39.95116813387125 20.70486102546161 H 0.0 **** 0.06
26018 H 106.41825927232735 38.77005909499363 19.65132482112304 H 0.0 **** 0.06
26019 H 106.44854092268982 40.501710038899205 19.23753375221665 H 0.0 **** 0.06
26020 H 104.93148749351667 39.579827053890966 19.100509527428244 H 0.0 **** 0.06
26021 C 82.08549762675884 69.23326624962397 59.90940271081992 C 0.0 **** -0.24
26022 H 83.06518885075143 69.69747125868864 59.788503502690375 H 0.0 **** 0.06
26023 H 81.93942519582642 68.96223932087528 60.95491212928448 H 0.0 **** 0.06
26024 H 82.02837797510927 68.338600270602 59.28989661323716 H 0.0 **** 0.06
26025 H 81.31059826703594 69.93729029333277 59.604202944066884 H 0.0 **** 0.06
26026 C 18.143235252603915 110.58486882815754 96.5259078125995 C 0.0 **** -0.24
26027 H 17.35260832400803 109.83422404508988 96.50887207029596 H 0.0 **** 0.06
26028 H 18.254527469487414 110.97211199905888 97.53998404990651 H 0.0 **** 0.06
26029 H 17.88292878925205 111.40118653875473 95.85155353651197 H 0.0 **** 0.06
26030 H 19.081131348207094 110.13317309162969 96.20443226962794 H 0.0 **** 0.06
26031 C 2.7328563637030268 7.050219958458257 59.867149361780776 C 0.0 **** -0.24
26032 H 1.9025038867042312 6.568037556084789 60.38205376914473 H 0.0 **** 0.06
26033 H 2.77663364919516 8.101594798270014 60.15272814813078 H 0.0 **** 0.06
26034 H 2.5862535670722817 6.971709948906437 58.78990217273585 H 0.0 **** 0.06
26035 H 3.666034351840482 6.559537530571703 60.14391335711173 H 0.0 **** 0.06
26036 C 2.9344100667710364 55.673266397490295 81.51824218083897 C 0.0 **** -0.24
26037 H 2.365478491440925 54.745396669248436 81.45649790945316 H 0.0 **** 0.06
26038 H 2.8941512197762336 56.05639310703597 82.5376899892737 H 0.0 **** 0.06
26039 H 2.505314256268292 56.407421432416044 80.83680411104075 H 0.0 **** 0.06
26040 H 3.9708778150226465 55.482232197812806 81.24172780306071 H 0.0 **** 0.06
26041 C 47.91799495250464 112.4872364474933 93.1388299137349 C 0.0 **** -0.24
26042 H 48.93139006865076 112.87008700983918 93.01966417467983 H 0.0 **** 0.06
26043 H 47.671020701132676 112.4406600325257 94.19969564066054 H 0.0 **** 0.06
26044 H 47.85324534389375 111.48913905365261 92.70686147983965 H 0.0 **** 0.06
26045 H 47.217323852200224 113.14994098059087 92.63115343734127 H 0.0 **** 0.06
26046 C 88.00764954511534 79.69302488595062 45.880854754346046 C 0.0 **** -0.24
26047 H 88.9035873549085 79.7063505745918 45.2593697352649 H 0.0 **** 0.06
26048 H 88.20169941255537 79.11542928348842 46.78558773583444 H 0.0 **** 0.06
26049 H 87.18831443885875 79.23529098351565 45.3261049091289 H 0.0 **** 0.06
26050 H 87.73824014722685 80.71353232944534 46.15125406863177 H 0.0 **** 0.06
26051 C 8.094237373343944 101.16087710357084 66.16273690393632 C 0.0 **** -0.24
26052 H 8.613717939050794 102.01961898422024 65.73952071737558 H 0.0 **** 0.06
26053 H 8.79999967176995 100.34169068728374 66.3029757707692 H 0.0 **** 0.06
26054 H 7.3014899280394765 100.84469186820462 65.48448981761392 H 0.0 **** 0.06
26055 H 7.6608018911552875 101.4360567855577 67.1238443330968 H 0.0 **** 0.06
26056 C 42.7455765708992 77.30126187059375 28.53065644399075 C 0.0 **** -0.24
26057 H 43.120599046900566 77.89382286768193 29.364771114125887 H 0.0 **** 0.06
26058 H 43.41698283438919 77.4090405596873 27.677880287846648 H 0.0 **** 0.06
26059 H 41.7496481080064 77.64975681000652 28.25550097710908 H 0.0 **** 0.06
26060 H 42.69569721275924 76.25282387609764 28.823266230245622 H 0.0 **** 0.06
26061 C 28.880756109241233 88.37608830506316 11.645036978712913 C 0.0 **** -0.24
26062 H 28.158389581200076 89.00269920892205 11.121011089446089 H 0.0 **** 0.06
26063 H 29.700085208873432 88.99592456353407 12.011117054402224 H 0.0 **** 0.06
26064 H 29.27193338170632 87.62264231129967 10.961533378866324 H 0.0 **** 0.06
26065 H 28.391825543459014 87.88517760073918 12.486415776819978 H 0.0 **** 0.06
26066 C 121.06350212052729 92.571607397305 23.191779107167214 C 0.0 **** -0.24
26067 H 121.47041447865962 91.74222845738194 23.770272507162154 H 0.0 **** 0.06
26068 H 120.15952227230383 92.94357696755134 23.675539231913255 H 0.0 **** 0.06
26069 H 120.8222149470109 92.22958324859366 22.185060318340753 H 0.0 **** 0.06
26070 H 121.80104844834881 93.37250852666847 23.136683543374915 H 0.0 **** 0.06
26071 C 48.917535331735394 81.59900554764702 112.29618791799506 C 0.0 **** -0.24
26072 H 49.99451864669902 81.66725034012619 112.14658099325284 H 0.0 **** 0.06
26073 H 48.61189688014389 82.30950298900234 113.06448424829966 H 0.0 **** 0.06
26074 H 48.658253794199766 80.5888004771783 112.61225671145564 H 0.0 **** 0.06
26075 H 48.40528526856855 81.82998261990062 111.36228366028138 H 0.0 **** 0.06
26076 C 29.5211028634329 26.458950352378878 95.31621144202701 C 0.0 **** -0.24
26077 H 30.59172514475118 26.398648645232356 95.12014167600665 H 0.0 **** 0.06
26078 H 29.318202282341332 26.117111442717842 96.33112977371108 H 0.0 **** 0.06
26079 H 28.98592446263605 25.829912054215782 94.60596111773515 H 0.0 **** 0.06
26080 H 29.189839824349406 27.49194825301737 95.20784231351753 H 0.0 **** 0.06
26081 C 26.297869903215883 73.20729672319581 106.29080128276608 C 0.0 **** -0.24
26082 H 27.274306708959017 73.68898518182138 106.24103089979866 H 0.0 **** 0.06
26083 H 26.144967420301867 72.80010790726794 107.29170635366698 H 0.0 **** 0.06
26084 H 26.25338164590964 72.40075580976159 105.55994070863748 H 0.0 **** 0.06
26085 H 25.520125037506176 73.93953936935077 106.07373138032632 H 0.0 **** 0.06
26086 C 91.90745861596648 39.64746220707792 105.21627046527853 C 0.0 **** -0.24
26087 H 92.81603149008942 39.53142961295708 104.62498584473553 H 0.0 **** 0.06
26088 H 91.03655292970298 39.52616095674023 104.5728779350067 H 0.0 **** 0.06
26089 H 91.8921464957718 40.63980415311107 105.66655447383128 H 0.0 **** 0.06
26090 H 91.88681342774352 38.89098825454164 106.00162689098622 H 0.0 **** 0.06
26091 C 81.46764021838678 100.98157140551476 30.979607917703476 C 0.0 **** -0.24
26092 H 81.15436550563888 101.95301229728088 31.362793624173264 H 0.0 **** 0.06
26093 H 81.49298204443065 101.01258557008987 29.890293625927796 H 0.0 **** 0.06
26094 H 80.76206324850804 100.21787486703576 31.30580327342892 H 0.0 **** 0.06
26095 H 82.4613009480806 100.74516550546414 31.360206540761197 H 0.0 **** 0.06
26096 C 11.830217807877432 121.99974843484819 98.65615806839693 C 0.0 **** -0.24
26097 H 11.53164983077778 122.94648591728208 98.20611584417074 H 0.0 **** 0.06
26098 H 12.91730296636257 121.95294260302481 98.7180269757142 H 0.0 **** 0.06
26099 H 11.46447602240221 121.17550098007422 98.04329118088742 H 0.0 **** 0.06
26100 H 11.405242131902355 121.92412100401737 99.6575930049884 H 0.0 **** 0.06
26101 C 87.00547543590557 91.62543355420215 114.06704767988742 C 0.0 **** -0.24
26102 H 88.06217055038269 91.69986814706265 113.80810426489023 H 0.0 **** 0.06
26103 H 86.8060259246696 92.22531615964594 114.9548513996715 H 0.0 **** 0.06
26104 H 86.75357180016442 90.58352475580732 114.26710610173012 H 0.0 **** 0.06
26105 H 86.40216565706334 91.99218812256119 113.2363484993462 H 0.0 **** 0.06
26106 C 16.932501892131608 28.90735878523077 67.73896381578226 C 0.0 **** -0.24
26107 H 17.99695027123553 29.018536584175592 67.53314390754002 H 0.0 **** 0.06
26108 H 16.504866211234525 29.88129706985025 67.97840834922204 H 0.0 **** 0.06
26109 H 16.794616498716483 28.23212498996115 68.58393227150538 H 0.0 **** 0.06
26110 H 16.43442531642974 28.496257555483155 66.86125989323943 H 0.0 **** 0.06
26111 C 120.75375749384182 29.15517945970089 75.6843411571513 C 0.0 **** -0.24
26112 H 120.83825477498564 29.91452110667096 76.46255465416006 H 0.0 **** 0.06
26113 H 121.2501518025087 28.2417205704145 76.01327170243921 H 0.0 **** 0.06
26114 H 121.22675431979144 29.517084121903416 74.77166174860594 H 0.0 **** 0.06
26115 H 119.70094060721826 28.948006503586434 75.49109078056132 H 0.0 **** 0.06
26116 C 66.6245144839134 31.74846083745581 28.114547962502684 C 0.0 **** -0.24
26117 H 67.21941331104586 32.13584122075463 27.28748960582743 H 0.0 **** 0.06
26118 H 67.28627671635189 31.321554237001806 28.868958510032883 H 0.0 **** 0.06
26119 H 65.9489037983538 30.977592963598056 27.745291178432183 H 0.0 **** 0.06
26120 H 66.0442617158925 32.559160151065754 28.555932250544004 H 0.0 **** 0.06
26121 C 87.38963748470297 84.41674671368584 30.02263867045327 C 0.0 **** -0.24
26122 H 88.03098995655307 84.86079823849133 30.784120759255373 H 0.0 **** 0.06
26123 H 86.77693247042521 85.19366024430109 29.565895183970873 H 0.0 **** 0.06
26124 H 86.74425321650614 83.6684428019502 30.482662701424616 H 0.0 **** 0.06
26125 H 88.00658366820494 83.94378304258503 29.258805926287074 H 0.0 **** 0.06
26126 C 39.99289774861461 76.76378215173075 49.63722836813619 C 0.0 **** -0.24
26127 H 40.62573115003488 77.04726292872941 48.796497603341464 H 0.0 **** 0.06
26128 H 39.90524537434487 75.67764749333907 49.67588471456864 H 0.0 **** 0.06
26129 H 39.00399652366289 77.2044085432575 49.5120427520466 H 0.0 **** 0.06
26130 H 40.437871178481316 77.12554476985864 50.565087868683605 H 0.0 **** 0.06
26131 C 108.52900022910353 14.726065124343847 24.641955928834136 C 0.0 **** -0.24
26132 H 109.2797365265277 15.244318561464496 24.045987763227913 H 0.0 **** 0.06
26133 H 108.85446958532248 13.701581805282473 24.825633349480142 H 0.0 **** 0.06
26134 H 107.58192151977786 14.714528440783596 24.101534254271655 H 0.0 **** 0.06
26135 H 108.39960989313164 15.24308969201249 25.592575424045833 H 0.0 **** 0.06
26136 C 49.44325999825679 46.83828715067028 74.0116450975126 C 0.0 **** -0.24
26137 H 49.80645251187215 47.030737996065966 75.02090698023096 H 0.0 **** 0.06
26138 H 49.08993052738043 45.80859882308721 73.94357140516362 H 0.0 **** 0.06
26139 H 50.25310894870836 46.99217036393924 73.29877040937257 H 0.0 **** 0.06
26140 H 48.624176625776585 47.520231610831786 73.78411736633282 H 0.0 **** 0.06
26141 C 123.32714284930825 92.58305837393495 86.28415421286758 C 0.0 **** -0.24
26142 H 123.41178188634677 92.07149501658567 85.324990560363 H 0.0 **** 0.06
26143 H 123.75592680476024 91.95750052777342 87.0669564867257 H 0.0 **** 0.06
26144 H 122.27549541089769 92.77008905150292 86.5033229718959 H 0.0 **** 0.06
26145 H 123.86346344925289 93.52995451463691 86.239304226635 H 0.0 **** 0.06
26146 C 77.31538434960328 78.8106371499648 95.89264173087017 C 0.0 **** -0.24
26147 H 77.38265084838898 78.48084927140087 94.8565761894823 H 0.0 **** 0.06
26148 H 76.54843188733652 78.2324207051563 96.40941581231456 H 0.0 **** 0.06
26149 H 77.05267994344156 79.86887186668224 95.91990833383997 H 0.0 **** 0.06
26150 H 78.27665258100704 78.66230136991848 96.3842773394143 H 0.0 **** 0.06
26151 C 59.13061561192086 25.244102982089828 88.61478757228025 C 0.0 **** -0.24
26152 H 58.59121180623518 26.085721163969218 88.18138934399457 H 0.0 **** 0.06
26153 H 58.58546130068004 24.872731026205003 89.48361923318839 H 0.0 **** 0.06
26154 H 60.125419829747656 25.569335101076994 88.92188923447713 H 0.0 **** 0.06
26155 H 59.22025004154342 24.44956472648581 87.87509895627142 H 0.0 **** 0.06
26156 C 35.494576827139696 33.90755583519024 56.80212172617277 C 0.0 **** -0.24
26157 H 34.618387751624766 34.418544894190234 57.202467384012806 H 0.0 **** 0.06
26158 H 35.21901684081429 33.37468104568484 55.89188665952062 H 0.0 **** 0.06
26159 H 35.86889312346466 33.19742776475948 57.539912465199194 H 0.0 **** 0.06
26160 H 36.27021088763151 34.63906916178939 56.575806115800816 H 0.0 **** 0.06
26161 C 9.308075987338654 89.61803505966947 27.920155688462245 C 0.0 **** -0.24
26162 H 9.34518953470652 90.44059817974305 27.20630263859124 H 0.0 **** 0.06
26163 H 8.28108532045168 89.26380039921037 28.01164725749271 H 0.0 **** 0.06
26164 H 9.661081770447737 89.96460772051998 28.89164888841384 H 0.0 **** 0.06
26165 H 9.944164526166489 88.8058497246655 27.57113427015173 H 0.0 **** 0.06
26166 C 75.05751990125209 48.72058417639036 13.645390664529412 C 0.0 **** -0.24
26167 H 74.62875506047332 47.74278503297367 13.421928479665148 H 0.0 **** 0.06
26168 H 74.29129743331151 49.48756213312615 13.529232624027063 H 0.0 **** 0.06
26169 H 75.88017342223698 48.92151015959095 12.959346479493917 H 0.0 **** 0.06
26170 H 75.42826352287621 48.729085705170235 14.670327537516776 H 0.0 **** 0.06
26171 C 72.4476568090513 95.82573052697279 124.04235958068938 C 0.0 **** -0.24
26172 H 71.69829170118112 95.07259092739696 124.28906075127327 H 0.0 **** 0.06
26173 H 72.47172857818077 95.97303973373215 122.96203124005626 H 0.0 **** 0.06
26174 H 73.42641335561444 95.48876327140259 124.38443913461042 H 0.0 **** 0.06
26175 H 72.1933779760858 96.76458931116169 124.53300109745216 H 0.0 **** 0.06
26176 C 74.29518836029098 53.59372823656766 2.742893450114737 C 0.0 **** -0.24
26177 H 74.07001725710052 54.532641066700364 3.2468778545873533 H 0.0 **** 0.06
26178 H 74.39037081271636 53.770002131761785 1.6712160034476682 H 0.0 **** 0.06
26179 H 73.48962653318029 52.88178265266791 2.924685570781918 H 0.0 **** 0.06
26180 H 75.23100417424723 53.18961619273358 3.129876606833502 H 0.0 **** 0.06
26181 C 113.3531361209092 7.105817016897646 43.55841949937059 C 0.0 **** -0.24
26182 H 113.43818487968787 6.178369375276887 42.99189915519612 H 0.0 **** 0.06
26183 H 113.37978163073831 7.954347025513172 42.87386737287255 H 0.0 **** 0.06
26184 H 114.1838162948934 7.179719511207679 44.2609994812682 H 0.0 **** 0.06
26185 H 112.4114632335212 7.1114868103669835 44.107950908099006 H 0.0 **** 0.06
26186 C 122.87614032325737 25.57676454885012 93.24564199159104 C 0.0 **** -0.24
26187 H 123.53149609457085 26.261491146289586 92.70657144734375 H 0.0 **** 0.06
26188 H 122.57394077585298 26.03171880900487 94.18994748487512 H 0.0 **** 0.06
26189 H 123.40731420346805 24.645949145626673 93.44368664345515 H 0.0 **** 0.06
26190 H 121.99219105785141 25.369575838793367 92.64257131950774 H 0.0 **** 0.06
26191 C 89.3366685326905 111.83234721742569 82.54843475914845 C 0.0 **** -0.24
26192 H 90.02652795901346 112.6501204106923 82.76000686056503 H 0.0 **** 0.06
26193 H 89.68350222688647 111.2829414220744 81.67270796509504 H 0.0 **** 0.06
26194 H 88.34345266073561 112.23614864580611 82.35410436510803 H 0.0 **** 0.06
26195 H 89.29516710208763 111.16157107346709 83.4065237384731 H 0.0 **** 0.06
26196 C 32.45670564969208 76.13650886532048 51.12233924000549 C 0.0 **** -0.24
26197 H 32.88720491325989 76.08644301651873 50.12236549793721 H 0.0 **** 0.06
26198 H 31.766712712265644 76.97883171927785 51.17916090758729 H 0.0 **** 0.06
26199 H 33.25351317446638 76.26780676427242 51.85399715396693 H 0.0 **** 0.06
26200 H 31.919392207253168 75.21128701625554 51.33234290985256 H 0.0 **** 0.06
26201 C 43.24709117745613 5.09375748538929 91.63902270476589 C 0.0 **** -0.24
26202 H 43.34694116071262 4.989765373950888 90.55805952729591 H 0.0 **** 0.06
26203 H 42.24739938508566 5.456166142513339 91.87806449990998 H 0.0 **** 0.06
26204 H 43.98860104611555 5.803737623045038 92.00471656733404 H 0.0 **** 0.06
26205 H 43.40653094375989 4.1252047204061455 92.11229237113895 H 0.0 **** 0.06
26206 C 91.70677863288505 26.557685029988875 30.076249778274025 C 0.0 **** -0.24
26207 H 91.0548715466645 26.580912782926248 30.949345027503 H 0.0 **** 0.06
26208 H 91.60077288221152 25.59812748782275 29.56979560304506 H 0.0 **** 0.06
26209 H 92.74093452217723 26.69074108097101 30.39240059522391 H 0.0 **** 0.06
26210 H 91.42854117118424 27.361878206607628 29.393878877503816 H 0.0 **** 0.06
26211 C 2.3176989164349777 44.6516957272419 66.31168822292545 C 0.0 **** -0.24
26212 H 1.6543966578047389 45.39705023002264 65.87338529029 H 0.0 **** 0.06
26213 H 3.3489577508165382 44.99870950008355 66.24588265622583 H 0.0 **** 0.06
26214 H 2.21492255234088 43.7111651095897 65.76901616127824 H 0.0 **** 0.06
26215 H 2.050577844116191 44.498793032863006 67.3574204141812 H 0.0 **** 0.06
26216 C 48.6474150857523 69.29164475455428 55.7693854767799 C 0.0 **** -0.24
26217 H 49.60189194634677 68.77819273811707 55.890040838129366 H 0.0 **** 0.06
26218 H 48.773667705221015 70.13888362234155 55.0963452024893 H 0.0 **** 0.06
26219 H 48.30114429250327 69.64631133418067 56.74048634470586 H 0.0 **** 0.06
26220 H 47.915065182272684 68.60100774091887 55.35200578130595 H 0.0 **** 0.06
26221 C 1.6395323539454125 14.98422052581671 8.69493236472357 C 0.0 **** -0.24
26222 H 2.1504397386591165 15.378153601960122 7.816466046270392 H 0.0 **** 0.06
26223 H 0.596974429453283 14.782911990317103 8.448947513403482 H 0.0 **** 0.06
26224 H 1.6882067564115175 15.715470806101706 9.502008294720454 H 0.0 **** 0.06
26225 H 2.123394728673901 14.059974472619729 9.012030434030521 H 0.0 **** 0.06
26226 C 83.38735810605696 65.64825947117504 86.5911247947241 C 0.0 **** -0.24
26227 H 82.36754456040053 65.30268226154851 86.42156820774262 H 0.0 **** 0.06
26228 H 83.37753598508255 66.47518330163086 87.30040975275762 H 0.0 **** 0.06
26229 H 83.8178760168083 65.98369346153447 85.64757454371416 H 0.0 **** 0.06
26230 H 83.9860027172806 64.83055109924283 86.99272953330596 H 0.0 **** 0.06
26231 C 116.21309124596843 50.64690063178793 33.33904169087333 C 0.0 **** -0.24
26232 H 116.40600353253484 50.57658428251639 32.26912342180594 H 0.0 **** 0.06
26233 H 115.83345981222067 49.692444428182455 33.703534529526735 H 0.0 **** 0.06
26234 H 115.4736605368447 51.42674143226061 33.52385054059704 H 0.0 **** 0.06
26235 H 117.13814967582312 50.89374697074959 33.859279570182025 H 0.0 **** 0.06
26236 C 98.42756771509426 124.23774983293326 11.59458668500028 C 0.0 **** -0.24
26237 H 98.60589771737912 123.77821530830884 12.567194613677628 H 0.0 **** 0.06
26238 H 97.62810889457202 124.97330445227242 11.68164232595987 H 0.0 **** 0.06
26239 H 98.13875694277746 123.4699066756109 10.878045101591994 H 0.0 **** 0.06
26240 H 99.33876875210822 124.72984643191735 11.25354658551737 H 0.0 **** 0.06
26241 C 41.68837406195263 59.671830668795906 47.85666236677861 C 0.0 **** -0.24
26242 H 40.74803118650652 59.94744774031108 47.37735524984626 H 0.0 **** 0.06
26243 H 41.64955586991894 59.94088595177391 48.9125341133181 H 0.0 **** 0.06
26244 H 42.50980047207727 60.20210982583285 47.376299691857895 H 0.0 **** 0.06
26245 H 41.84333179653956 58.597223155863844 47.76004713991358 H 0.0 **** 0.06
26246 C 111.12107337007598 56.6501900151802 52.08517431034437 C 0.0 **** -0.24
26247 H 110.46191502753129 55.91381115969139 52.54478083905573 H 0.0 **** 0.06
26248 H 112.06998595598736 56.17719366793217 51.82784535955068 H 0.0 **** 0.06
26249 H 111.2992008518072 57.46553958296481 52.78592844815151 H 0.0 **** 0.06
26250 H 110.65427698220617 57.04206339720166 51.18170650728243 H 0.0 **** 0.06
26251 C 75.18384586777262 110.18663331655455 2.5502938460248714 C 0.0 **** -0.24
26252 H 75.72068676218657 109.46652866594812 3.167273437534419 H 0.0 **** 0.06
26253 H 74.75221083304268 109.67698658769939 1.6885507607768204 H 0.0 **** 0.06
26254 H 75.87420758601542 110.95800412779744 2.208720301401428 H 0.0 **** 0.06
26255 H 74.38871557693813 110.64505203267228 3.1383064397001306 H 0.0 **** 0.06
26256 C 109.18809464027706 19.14941228571783 6.511435302754592 C 0.0 **** -0.24
26257 H 108.85502608176205 18.111887336651648 6.526699538565197 H 0.0 **** 0.06
26258 H 109.76306331189718 19.33366211315149 5.603988483849264 H 0.0 **** 0.06
26259 H 109.81285361858988 19.342690779553806 7.384301517535079 H 0.0 **** 0.06
26260 H 108.32073130408043 19.80877586394294 6.533416950889347 H 0.0 **** 0.06
26261 C 109.45357318845122 73.55772806488977 62.63307144226334 C 0.0 **** -0.24
26262 H 108.9457293464025 74.49875280266212 62.844201205756605 H 0.0 **** 0.06
26263 H 110.46851874912299 73.76146097181463 62.290873909064004 H 0.0 **** 0.06
26264 H 108.91010271732338 73.0177009851614 61.85789643259406 H 0.0 **** 0.06
26265 H 109.48975039265594 72.95394009958072 63.53958784319025 H 0.0 **** 0.06
26266 C 18.995667894801244 95.44961890587125 108.72470527506992 C 0.0 **** -0.24
26267 H 19.58830358829819 96.32820390378082 108.97870531200131 H 0.0 **** 0.06
26268 H 17.992443685280264 95.76020962774723 108.43092924400383 H 0.0 **** 0.06
26269 H 18.93354273746094 94.79088456821886 109.59061648123038 H 0.0 **** 0.06
26270 H 19.46861354856803 94.91969143969092 107.89693230959573 H 0.0 **** 0.06
26271 C 21.871626456420984 55.894537482809625 32.979719333032165 C 0.0 **** -0.24
26272 H 22.577596191980753 56.71613497196992 32.85773156412766 H 0.0 **** 0.06
26273 H 21.859591447445034 55.57756318691254 34.02272229622099 H 0.0 **** 0.06
26274 H 22.174087590166955 55.05896631761408 32.34916818349603 H 0.0 **** 0.06
26275 H 20.8745168742631 56.226181281154695 32.689335789086 H 0.0 **** 0.06
26276 C 100.75922728145903 34.07019484793233 56.58908444840327 C 0.0 **** -0.24
26277 H 100.6302107893996 33.64285051287922 55.594786575475865 H 0.0 **** 0.06
26278 H 99.79240366419239 34.12295268647259 57.0895256574145 H 0.0 **** 0.06
26279 H 101.1790534136048 35.07213425441634 56.50194013342056 H 0.0 **** 0.06
26280 H 101.43464410405952 33.44156717740154 57.1699494156461 H 0.0 **** 0.06
26281 C 23.252977827527715 114.15430319187212 16.10254575981477 C 0.0 **** -0.24
26282 H 22.270772355248063 113.94585211066982 16.525792994837982 H 0.0 **** 0.06
26283 H 24.00141344845718 113.53708545162837 16.60007678288613 H 0.0 **** 0.06
26284 H 23.495225714483688 115.20643450143831 16.246938594011898 H 0.0 **** 0.06
26285 H 23.24540102381485 113.92516824743129 15.036351808341607 H 0.0 **** 0.06
26286 C 70.20017335587625 64.75824647030521 58.1629659518464 C 0.0 **** -0.24
26287 H 69.61062365722341 64.67659492938492 57.24921711155099 H 0.0 **** 0.06
26288 H 69.55848148829944 64.57736311705304 59.02543362039037 H 0.0 **** 0.06
26289 H 70.62695106921791 65.75900235807907 58.2308787797534 H 0.0 **** 0.06
26290 H 71.00224156432989 64.02125832150062 58.14439998151998 H 0.0 **** 0.06
26291 C 84.76465892351798 121.43716005349455 85.78808312542435 C 0.0 **** -0.24
26292 H 83.7384263189207 121.18712715238247 85.51712381191842 H 0.0 **** 0.06
26293 H 85.45241424741586 120.81282161244255 85.2181245227649 H 0.0 **** 0.06
26294 H 84.91251803092686 121.26157806456139 86.85353718114638 H 0.0 **** 0.06
26295 H 84.95356149078057 122.4869322199431 85.56253501263566 H 0.0 **** 0.06
26296 C 64.91803936004216 60.68705448584622 68.53993503599126 C 0.0 **** -0.24
26297 H 64.88395955474404 59.75923293819555 67.96781047258567 H 0.0 **** 0.06
26298 H 64.09100510479307 60.7064129207798 69.24966547593367 H 0.0 **** 0.06
26299 H 64.83485590225912 61.534297876359986 67.86067974465445 H 0.0 **** 0.06
26300 H 65.86331255104977 60.74515563036307 69.0797614623735 H 0.0 **** 0.06
26301 C 105.66757562613736 84.39550059171161 116.59747882341708 C 0.0 **** -0.24
26302 H 104.9029093921126 84.87692761658874 117.2071330538341 H 0.0 **** 0.06
26303 H 106.44598924697328 83.99100424364974 117.24455196782273 H 0.0 **** 0.06
26304 H 106.10375193309477 85.12749928189702 115.91765762585663 H 0.0 **** 0.06
26305 H 105.21732869250476 83.58790930762876 116.02089692588407 H 0.0 **** 0.06
26306 C 98.85261660787049 36.33652766284366 102.86338664826584 C 0.0 **** -0.24
26307 H 99.03247811762257 36.34207840602252 103.9386237178401 H 0.0 **** 0.06
26308 H 98.9720601870182 35.322781521578904 102.48055806892305 H 0.0 **** 0.06
26309 H 99.56848091374128 36.997049768833506 102.37302595525264 H 0.0 **** 0.06
26310 H 97.83995388247602 36.684978260632896 102.66279242839738 H 0.0 **** 0.06
26311 C 82.36233035657969 117.70403250023509 101.39159749188383 C 0.0 **** -0.24
26312 H 81.30843596902255 117.97003018027692 101.46644069266227 H 0.0 **** 0.06
26313 H 82.77440320032298 118.10898129985046 100.46701911411333 H 0.0 **** 0.06
26314 H 82.46325390333956 116.61796154681792 101.39054082028474 H 0.0 **** 0.06
26315 H 82.90333081067243 118.11791815525712 102.24306383134763 H 0.0 **** 0.06
26316 C 55.193121514622874 112.83411436513056 107.6906833253696 C 0.0 **** -0.24
26317 H 54.89468028306564 113.22002602403892 108.66473191666861 H 0.0 **** 0.06
26318 H 54.51813817945583 113.21842753303318 106.92543197024148 H 0.0 **** 0.06
26319 H 55.14923674408837 111.74534736581883 107.70200680341131 H 0.0 **** 0.06
26320 H 56.21214163105125 113.15405550124281 107.47022143149044 H 0.0 **** 0.06
26321 C 40.087511179984375 66.53577208858809 111.6169673220196 C 0.0 **** -0.24
26322 H 41.04847357635259 66.62162396296858 112.12405254915132 H 0.0 **** 0.06
26323 H 40.187412732760606 66.87979574095334 110.58727458139401 H 0.0 **** 0.06
26324 H 39.34864220116964 67.1471904525537 112.13467854111617 H 0.0 **** 0.06
26325 H 39.76593113062194 65.49471054218493 111.62319551880103 H 0.0 **** 0.06
26326 C 53.12711414419255 29.456961216800664 39.16892053475274 C 0.0 **** -0.24
26327 H 54.189018327803865 29.41760396747503 38.92605385807403 H 0.0 **** 0.06
26328 H 52.59083559086065 28.714901363048796 38.57721012582843 H 0.0 **** 0.06
26329 H 52.73929291984507 30.45053756232892 38.94255691101256 H 0.0 **** 0.06
26330 H 52.98886021405394 29.245947180918506 40.22916372194504 H 0.0 **** 0.06
26331 C 78.87763200885365 31.616335074509152 8.759813692561892 C 0.0 **** -0.24
26332 H 79.1160643391078 30.744379162804904 9.370409892953944 H 0.0 **** 0.06
26333 H 79.49675114112429 32.45757199760729 9.073004845984883 H 0.0 **** 0.06
26334 H 77.82616595399227 31.871558215239304 8.886197692263352 H 0.0 **** 0.06
26335 H 79.07471870872203 31.39060626432564 7.711974474986221 H 0.0 **** 0.06
26336 C 14.174114756227453 35.8191280510101 45.71907953542035 C 0.0 **** -0.24
26337 H 14.166705054556473 35.541856796804126 44.66493748734848 H 0.0 **** 0.06
26338 H 14.041798153139553 36.89829422875599 45.81026346377723 H 0.0 **** 0.06
26339 H 15.126591961934082 35.531271094028995 46.16316872512368 H 0.0 **** 0.06
26340 H 13.362256299692575 35.30857831387192 46.234942308716 H 0.0 **** 0.06
26341 C 97.86002942514716 6.084883726687906 84.3217052112472 C 0.0 **** -0.24
26342 H 97.81141893825645 6.640946181407685 83.3847098267533 H 0.0 **** 0.06
26343 H 96.85064069366493 5.831959611264097 84.64611927767177 H 0.0 **** 0.06
26344 H 98.34393981029655 6.698340228428378 85.08276148551494 H 0.0 **** 0.06
26345 H 98.43459191159619 5.1710800981393845 84.1722376483375 H 0.0 **** 0.06
26346 C 93.94532624290997 49.51744378854387 21.383438002022714 C 0.0 **** -0.24
26347 H 93.84260030863784 49.16697506680534 20.356935342398273 H 0.0 **** 0.06
26348 H 94.83699434051799 50.13903094072897 21.46812064739764 H 0.0 **** 0.06
26349 H 94.03512483016533 48.66023077926199 22.05215609103567 H 0.0 **** 0.06
26350 H 93.0665453299823 50.10125264832177 21.657419811978713 H 0.0 **** 0.06
26351 C 7.838838886631478 79.59790640356638 96.509388569661 C 0.0 **** -0.24
26352 H 8.121212431317915 79.67480808913959 95.45987965293975 H 0.0 **** 0.06
26353 H 6.796905788380734 79.89508019897741 96.62782781049835 H 0.0 **** 0.06
26354 H 8.474350475869809 80.25213801054855 97.10641013004872 H 0.0 **** 0.06
26355 H 7.962654381578254 78.56718537276471 96.84309148996921 H 0.0 **** 0.06
26356 C 96.9786007686003 6.216790934532611 9.60690816123659 C 0.0 **** -0.24
26357 H 98.00972655032967 6.165251586530218 9.2594877485312 H 0.0 **** 0.06
26358 H 96.32468797752468 5.7410568769288375 8.875635362349243 H 0.0 **** 0.06
26359 H 96.68887508295641 7.2612429012464474 9.728006871168503 H 0.0 **** 0.06
26360 H 96.89064417445482 5.701870928119561 10.563678636113195 H 0.0 **** 0.06
26361 C 17.188799037879633 107.60934827544993 25.905519454135316 C 0.0 **** -0.24
26362 H 18.05767743901375 108.24606237178584 26.07385905817449 H 0.0 **** 0.06
26363 H 16.92508754357266 107.62665692001806 24.848426117632926 H 0.0 **** 0.06
26364 H 16.34979952789694 107.97559040526643 26.496704029529027 H 0.0 **** 0.06
26365 H 17.424958532005608 106.58820663950533 26.204767105699077 H 0.0 **** 0.06
26366 C 66.85332066456604 116.73679709746341 5.240563245732858 C 0.0 **** -0.24
26367 H 67.37864270937533 117.5713423220173 4.775640940205335 H 0.0 **** 0.06
26368 H 67.20444724413844 115.80034720256651 4.806690630280798 H 0.0 **** 0.06
26369 H 65.7822211724731 116.83961662770656 5.06662150780835 H 0.0 **** 0.06
26370 H 67.04934089166582 116.73619120110959 6.313128138401396 H 0.0 **** 0.06
26371 C 5.6861367189603875 76.7510453437489 77.0270594782624 C 0.0 **** -0.24
26372 H 5.680464955181954 75.74127608232635 76.61778630923652 H 0.0 **** 0.06
26373 H 6.682802020081642 77.18080481788468 76.92060363368154 H 0.0 **** 0.06
26374 H 5.416345017948366 76.71626476996238 78.08287693001222 H 0.0 **** 0.06
26375 H 4.965013481854459 77.36544812394249 76.48788954806554 H 0.0 **** 0.06
26376 C 114.7820344855487 100.55506931733834 101.17249089985964 C 0.0 **** -0.24
26377 H 115.58512354329002 99.99240614209336 100.6966213612317 H 0.0 **** 0.06
26378 H 114.03765899463244 100.82888414981747 100.42392203595475 H 0.0 **** 0.06
26379 H 115.19046824570373 101.45813304659441 101.62615980390379 H 0.0 **** 0.06
26380 H 114.31433551090171 99.94107259298278 101.94245546024726 H 0.0 **** 0.06
26381 C 36.87390175171009 48.46461685985608 89.13067761047427 C 0.0 **** -0.24
26382 H 37.72146193071876 48.73064008013907 89.76215135076124 H 0.0 **** 0.06
26383 H 35.95880207753328 48.871374564011205 89.56016151158036 H 0.0 **** 0.06
26384 H 36.796098042723145 47.379071756079895 89.06756552008109 H 0.0 **** 0.06
26385 H 37.02227782739635 48.87650085962969 88.13299792220667 H 0.0 **** 0.06
26386 C 33.41816520670261 88.42948899139134 113.27169059276062 C 0.0 **** -0.24
26387 H 32.38731388901783 88.37723456742127 113.62064860220501 H 0.0 **** 0.06
26388 H 33.531425964249536 89.27947256399773 112.59794234972867 H 0.0 **** 0.06
26389 H 33.66939347803532 87.51041293539474 112.74330038883247 H 0.0 **** 0.06
26390 H 34.08470052002167 88.55187183372529 114.1258181356007 H 0.0 **** 0.06
26391 C 46.52230032811195 47.946793487311396 34.38865043447245 C 0.0 **** -0.24
26392 H 45.48599173230815 48.26859219211363 34.27504181708741 H 0.0 **** 0.06
26393 H 46.626427280440055 46.925332766943086 34.0226992302444 H 0.0 **** 0.06
26394 H 46.800429067688526 47.98669001356615 35.441745098124414 H 0.0 **** 0.06
26395 H 47.17235469836237 48.607262187666066 33.81583540803143 H 0.0 **** 0.06
26396 C 84.01001999730109 71.22922156875259 48.47384859220523 C 0.0 **** -0.24
26397 H 84.74493541374547 70.81354635723018 49.1623688128883 H 0.0 **** 0.06
26398 H 84.16164288863298 70.80376274599843 47.48142477179411 H 0.0 **** 0.06
26399 H 84.12823738401806 72.31170159444993 48.426326546371115 H 0.0 **** 0.06
26400 H 83.00594492090524 70.98824708463157 48.82295064936275 H 0.0 **** 0.06
26401 C 30.661273665498072 4.521168379371716 5.21084050383115 C 0.0 **** -0.24
26402 H 30.18565288591509 4.478247294107945 4.230892864892191 H 0.0 **** 0.06
26403 H 31.73388065850918 4.6696271144609796 5.086663448057365 H 0.0 **** 0.06
26404 H 30.482990214825065 3.585819913697833 5.741651188693378 H 0.0 **** 0.06
26405 H 30.24277823358551 5.348941159628424 5.782204166574836 H 0.0 **** 0.06
26406 C 82.90696909925846 34.673227550369226 26.55074659875953 C 0.0 **** -0.24
26407 H 83.11026072408936 33.8211129531022 27.200136305149158 H 0.0 **** 0.06
26408 H 83.79037971656628 35.30962574241868 26.500619558272888 H 0.0 **** 0.06
26409 H 82.06996674491413 35.24438479012791 26.95264358150763 H 0.0 **** 0.06
26410 H 82.65819680105007 34.317091783205505 25.551744951024148 H 0.0 **** 0.06
26411 C 93.89457152698358 114.46099902532848 60.18431034696803 C 0.0 **** -0.24
26412 H 94.00466787606578 114.83972282417417 61.20015863923646 H 0.0 **** 0.06
26413 H 94.65722717627403 113.70489519182607 59.995230698493486 H 0.0 **** 0.06
26414 H 94.0117358907082 115.28141763188634 59.47641662642653 H 0.0 **** 0.06
26415 H 92.9061360212549 114.01761566109195 60.06707507330603 H 0.0 **** 0.06
26416 C 28.037319955927387 30.297587317082325 61.581053591491894 C 0.0 **** -0.24
26417 H 27.511827713681043 31.096323167518925 62.10442310541812 H 0.0 **** 0.06
26418 H 27.976014847252486 29.37924180729032 62.16629200169443 H 0.0 **** 0.06
26419 H 29.083038336953678 30.576069579515504 61.44989943136302 H 0.0 **** 0.06
26420 H 27.57889376266627 30.138961499169035 60.605766507371555 H 0.0 **** 0.06
26421 C 19.855103020527928 80.4702187991486 7.982294136649841 C 0.0 **** -0.24
26422 H 20.76820733612528 80.26659001902217 7.423379555175359 H 0.0 **** 0.06
26423 H 19.480051134804864 79.54332495757629 8.416208408378623 H 0.0 **** 0.06
26424 H 19.104761028447566 80.88821881218868 7.311989329551864 H 0.0 **** 0.06
26425 H 20.06886028618738 81.18451276467206 8.778440956037798 H 0.0 **** 0.06
26426 C 1.2535667770332708 55.82110662267797 67.7862251415514 C 0.0 **** -0.24
26427 H 1.8882680169398753 56.36195276958415 67.08440359843455 H 0.0 **** 0.06
26428 H 1.591079873936792 56.01495158895017 68.80442342861042 H 0.0 **** 0.06
26429 H 1.3146106449528219 54.7520080940169 67.58067287398087 H 0.0 **** 0.06
26430 H 0.22188028491163436 56.153923576410705 67.67542113510733 H 0.0 **** 0.06
26431 C 19.063505419180814 75.97639327791165 96.48905217435725 C 0.0 **** -0.24
26432 H 19.360917668319416 76.47184526191764 95.56438356479157 H 0.0 **** 0.06
26433 H 18.567417883854347 76.69388045635178 97.14242266346861 H 0.0 **** 0.06
26434 H 19.947046026391405 75.57942568109448 96.98870647256354 H 0.0 **** 0.06
26435 H 18.379517160117047 75.15975150753991 96.25936117497139 H 0.0 **** 0.06
26436 C 15.793963521940853 71.37482109095346 9.602482331520292 C 0.0 **** -0.24
26437 H 15.024105560643363 71.35915008425641 8.830452609391727 H 0.0 **** 0.06
26438 H 15.421800475843582 70.87405133150067 10.49631510565385 H 0.0 **** 0.06
26439 H 16.046837895800778 72.40743579107362 9.8431878429692 H 0.0 **** 0.06
26440 H 16.6824470622621 70.8578382817697 9.239021856554558 H 0.0 **** 0.06
26441 C 93.28515612376694 9.595491338704988 75.10184876363289 C 0.0 **** -0.24
26442 H 92.47458570040232 9.696213083051845 75.8231041880417 H 0.0 **** 0.06
26443 H 93.84591487663693 10.528465633639058 75.0523689471637 H 0.0 **** 0.06
26444 H 92.86975284556297 9.367914718173722 74.11953121341826 H 0.0 **** 0.06
26445 H 93.94810467307957 8.787347222000534 75.41106231519935 H 0.0 **** 0.06
26446 C 41.85254922460544 100.54779691735281 120.74642787282838 C 0.0 **** -0.24
26447 H 42.37165164354448 99.94360717793734 120.00284592827461 H 0.0 **** 0.06
26448 H 42.372576712409355 100.4742694191225 121.70226514913587 H 0.0 **** 0.06
26449 H 40.8304788911187 100.183791249642 120.8600716953173 H 0.0 **** 0.06
26450 H 41.83457022596431 101.58764483819665 120.42132831733355 H 0.0 **** 0.06
26451 C 10.6415264066409 68.23855271624929 79.14728111401271 C 0.0 **** -0.24
26452 H 10.020194496112726 67.3502930498692 79.26472543821197 H 0.0 **** 0.06
26453 H 10.488439676870112 68.66099119187254 78.15477779769853 H 0.0 **** 0.06
26454 H 11.690418217084726 67.96704378624086 79.27066114563823 H 0.0 **** 0.06
26455 H 10.366506758913538 68.97517607020252 79.90259361184991 H 0.0 **** 0.06
26456 C 36.78265597604775 91.12250605030815 76.94775364242793 C 0.0 **** -0.24
26457 H 36.64514387727391 92.15768432301257 76.63474071336444 H 0.0 **** 0.06
26458 H 35.80932990283836 90.65373626939461 77.08908976733537 H 0.0 **** 0.06
26459 H 37.33714123300186 91.09837717816521 77.88647227162946 H 0.0 **** 0.06
26460 H 37.33996981103269 90.58292671583149 76.1826575142538 H 0.0 **** 0.06
26461 C 28.04815489426629 76.91899803533822 1.2496790894969916 C 0.0 **** -0.24
26462 H 28.851369613281314 77.58555495193141 1.5650340355037553 H 0.0 **** 0.06
26463 H 27.105192347978537 77.25863730861268 1.6776294189475802 H 0.0 **** 0.06
26464 H 28.259933593424307 75.90691433424634 1.5939305217218287 H 0.0 **** 0.06
26465 H 27.976833527126345 76.92610549245288 0.16203049989036522 H 0.0 **** 0.06
26466 C 111.61436814101984 11.03810992526806 40.55532621314855 C 0.0 **** -0.24
26467 H 111.7308640780992 10.493890589004621 41.49258590131892 H 0.0 **** 0.06
26468 H 112.55607682716035 11.02086110992957 40.0063016605251 H 0.0 **** 0.06
26469 H 111.33513561028191 12.070465894491036 40.767137638704504 H 0.0 **** 0.06
26470 H 110.83475030721843 10.566356097827196 39.957237536940085 H 0.0 **** 0.06
26471 C 14.04177744243102 75.93394188745674 82.43031284583941 C 0.0 **** -0.24
26472 H 13.100273066590766 75.9389297378421 82.97997580124749 H 0.0 **** 0.06
26473 H 14.617261907756792 75.05028681162011 82.70607368893943 H 0.0 **** 0.06
26474 H 14.61078185745793 76.83021955878337 82.6757858129144 H 0.0 **** 0.06
26475 H 13.836750294756122 75.91547523328313 81.35972395097568 H 0.0 **** 0.06
26476 C 20.209683961114365 40.638643829882824 56.292820678983674 C 0.0 **** -0.24
26477 H 21.039405649306275 39.9411802931873 56.17459934701023 H 0.0 **** 0.06
26478 H 20.59147718019193 41.66016215309992 56.29383196340319 H 0.0 **** 0.06
26479 H 19.700421796430987 40.44036766454741 57.235524915074876 H 0.0 **** 0.06
26480 H 19.508991866043175 40.51278387941454 55.468574680887116 H 0.0 **** 0.06
26481 C 8.65202797341226 39.79918687097911 110.28316934488866 C 0.0 **** -0.24
26482 H 8.669397289829988 39.43426881817716 109.25562913001842 H 0.0 **** 0.06
26483 H 9.508224029674182 40.453342095261206 110.45091921222419 H 0.0 **** 0.06
26484 H 8.700753694651723 38.95358257202642 110.96912187434327 H 0.0 **** 0.06
26485 H 7.7305459397969685 40.35392066737239 110.45571181779125 H 0.0 **** 0.06
26486 C 27.85301563786703 49.361808959701136 54.76658383131161 C 0.0 **** -0.24
26487 H 28.411928740925354 48.75222511493433 55.47566021282083 H 0.0 **** 0.06
26488 H 26.784791499604758 49.23913118599586 54.94557284219715 H 0.0 **** 0.06
26489 H 28.091072784271425 49.04776666720403 53.75066705227269 H 0.0 **** 0.06
26490 H 28.124644951453924 50.41005364393544 54.89548055210386 H 0.0 **** 0.06
26491 C 112.55386325337473 99.68739105279555 93.7359291394053 C 0.0 **** -0.24
26492 H 111.71114776680338 100.37200402009823 93.83554057174243 H 0.0 **** 0.06
26493 H 112.80358030990377 99.27363821100123 94.71297299102625 H 0.0 **** 0.06
26494 H 113.41367848745702 100.2257535314227 93.33847944795981 H 0.0 **** 0.06
26495 H 112.28553204523885 98.87833913710136 93.05590037828262 H 0.0 **** 0.06
26496 C 73.64713916813469 62.675042106439605 53.958459850225665 C 0.0 **** -0.24
26497 H 74.10705160444957 62.48028500003518 54.927408733663185 H 0.0 **** 0.06
26498 H 74.11120145624119 63.55210746499861 53.50668525094056 H 0.0 **** 0.06
26499 H 72.58053887348808 62.85579394230159 54.09297493638911 H 0.0 **** 0.06
26500 H 73.79046474982118 61.81233568285799 53.3088645605049 H 0.0 **** 0.06
26501 C 29.82229304562287 30.121907405845022 19.90559441879296 C 0.0 **** -0.24
26502 H 29.76116839656538 29.217270472039445 19.300237890033117 H 0.0 **** 0.06
26503 H 29.54620677078043 30.983898274597692 19.29768171451488 H 0.0 **** 0.06
26504 H 30.841495575583508 30.246361954784447 20.271156950120826 H 0.0 **** 0.06
26505 H 29.140198363900197 30.040083312058485 20.75157216341563 H 0.0 **** 0.06
26506 C 87.29978765652228 11.165879870634967 94.94055293699995 C 0.0 **** -0.24
26507 H 86.85949782782171 10.501752175045723 94.19656906925212 H 0.0 **** 0.06
26508 H 86.51025994928918 11.58840889856188 95.56283661972975 H 0.0 **** 0.06
26509 H 87.83612978149117 11.970388361789816 94.43823145369731 H 0.0 **** 0.06
26510 H 87.99238781677028 10.60257992350661 95.56601748459582 H 0.0 **** 0.06
26511 C 68.19243158012807 28.169260248780517 107.07624659372615 C 0.0 **** -0.24
26512 H 68.18902294192492 27.349776843191364 107.79530713608453 H 0.0 **** 0.06
26513 H 68.84051357931867 28.967477817816416 107.43968462604941 H 0.0 **** 0.06
26514 H 67.17877549970547 28.549895209761303 106.95626320684052 H 0.0 **** 0.06
26515 H 68.56275110868216 27.808868971593427 106.11707339573393 H 0.0 **** 0.06
26516 C 37.96071680355412 89.31032777719673 56.450705259215766 C 0.0 **** -0.24
26517 H 36.97168256866075 89.58377164432997 56.08572260576156 H 0.0 **** 0.06
26518 H 38.65179064848135 90.13744325279572 56.283511595179434 H 0.0 **** 0.06
26519 H 38.31366772846067 88.42733929531977 55.91604387107503 H 0.0 **** 0.06
26520 H 37.90686149707116 89.09198843239955 57.517195407618445 H 0.0 **** 0.06
26521 C 111.91105963775054 13.451670260024343 47.43083730868298 C 0.0 **** -0.24
26522 H 111.5387543309087 12.642497876186667 46.80206743658502 H 0.0 **** 0.06
26523 H 113.00060470706583 13.464745842515924 47.39844455839366 H 0.0 **** 0.06
26524 H 111.57904479222127 13.296500438383305 48.45703033990253 H 0.0 **** 0.06
26525 H 111.52430311825762 14.402917196350757 47.063895322540844 H 0.0 **** 0.06
26526 C 34.0033171543578 67.54264052645337 60.9454059844271 C 0.0 **** -0.24
26527 H 34.238198982326594 66.83119513394269 60.15358296225733 H 0.0 **** 0.06
26528 H 32.96120649957183 67.42553315311191 61.24264149872073 H 0.0 **** 0.06
26529 H 34.165151192284355 68.55813890245724 60.58034894981358 H 0.0 **** 0.06
26530 H 34.648756151435805 67.35801466456333 61.80314860781982 H 0.0 **** 0.06
26531 C 53.43514141503215 87.14656245775176 107.65351212324347 C 0.0 **** -0.24
26532 H 54.52225291169887 87.21852512234427 107.68743376584338 H 0.0 **** 0.06
26533 H 53.02259114055707 87.43027157665692 108.6217874568279 H 0.0 **** 0.06
26534 H 53.146183671621515 86.12146534220123 107.42164786949525 H 0.0 **** 0.06
26535 H 53.050327391231576 87.81492105986244 106.8836682313629 H 0.0 **** 0.06
26536 C 72.04532216309258 42.01029519332763 114.92452999771217 C 0.0 **** -0.24
26537 H 71.49605515882001 42.83182082631057 114.4657271581276 H 0.0 **** 0.06
26538 H 71.37363434289489 41.437362329123445 115.56411434154558 H 0.0 **** 0.06
26539 H 72.8635429435704 42.41133255065551 115.52431046093847 H 0.0 **** 0.06
26540 H 72.44810490411243 41.36303366875693 114.14606275971869 H 0.0 **** 0.06
26541 C 112.90386107944656 38.70021152638927 56.08701020171391 C 0.0 **** -0.24
26542 H 111.9122812489365 38.46357775491035 55.70034285236433 H 0.0 **** 0.06
26543 H 113.64206162029768 38.573275573498364 55.29549210148396 H 0.0 **** 0.06
26544 H 113.13944229346643 38.032912857077406 56.91559854580845 H 0.0 **** 0.06
26545 H 112.91960809701877 39.73325823034938 56.43682777885418 H 0.0 **** 0.06
26546 C 97.990059530812 103.32544548570723 87.71580967475194 C 0.0 **** -0.24
26547 H 98.484500016201 104.12979845008971 87.17055591983882 H 0.0 **** 0.06
26548 H 98.42008024765754 102.36901761548063 87.41976816270642 H 0.0 **** 0.06
26549 H 96.92479573291114 103.33311934175867 87.48570786408703 H 0.0 **** 0.06
26550 H 98.1307983529848 103.47343748544142 88.78615710377198 H 0.0 **** 0.06
26551 C 84.6993254366256 117.5980682305792 95.32361531974752 C 0.0 **** -0.24
26552 H 85.07304602562124 118.35745420343775 94.63764556271201 H 0.0 **** 0.06
26553 H 84.60895790696492 118.02392489175415 96.32330605374545 H 0.0 **** 0.06
26554 H 85.39383643452112 116.75757970685243 95.34917491654107 H 0.0 **** 0.06
26555 H 83.72288460889911 117.25219393383952 94.98598396455691 H 0.0 **** 0.06
26556 C 57.323221052212716 71.69476522073347 114.46715122684736 C 0.0 **** -0.24
26557 H 56.354050793776025 71.96502706991124 114.88575512208683 H 0.0 **** 0.06
26558 H 57.66875302397108 70.76637734661067 114.92307378117142 H 0.0 **** 0.06
26559 H 58.04083051202599 72.4887171354084 114.67183312637164 H 0.0 **** 0.06
26560 H 57.228172149740885 71.55879089131707 113.39013759570909 H 0.0 **** 0.06
26561 C 72.40200530785833 95.43688380144714 20.88899285315432 C 0.0 **** -0.24
26562 H 73.10513367997818 95.96530579809306 20.24544536060654 H 0.0 **** 0.06
26563 H 71.53900268674553 95.12149882429618 20.301813537743868 H 0.0 **** 0.06
26564 H 72.0741404482285 96.09974459037365 21.689465769882133 H 0.0 **** 0.06
26565 H 72.88924149744066 94.56218024350335 21.318680223879454 H 0.0 **** 0.06
26566 C 60.340595207287805 23.391644617407636 108.51997055039502 C 0.0 **** -0.24
26567 H 60.224699020776114 22.49050639234963 107.91838710492095 H 0.0 **** 0.06
26568 H 60.68472472188947 24.20950899171377 107.88649247079744 H 0.0 **** 0.06
26569 H 61.07063857588085 23.210142582084366 109.30838881909952 H 0.0 **** 0.06
26570 H 59.38108115962453 23.655738734853628 108.96654852786219 H 0.0 **** 0.06
26571 C 32.83903479165332 27.383913235989723 114.16166367916463 C 0.0 **** -0.24
26572 H 33.46967830377284 27.099710835067356 113.31949063077252 H 0.0 **** 0.06
26573 H 32.48412912318898 26.4859047032395 114.6676432876763 H 0.0 **** 0.06
26574 H 31.98658696122766 27.95886589979625 113.79878645258952 H 0.0 **** 0.06
26575 H 33.41559145679764 27.991127979173086 114.85850390485069 H 0.0 **** 0.06
26576 C 115.99317631611291 4.349916720951569 108.0600828335896 C 0.0 **** -0.24
26577 H 116.36516533817395 3.3768043965912398 107.73908237755717 H 0.0 **** 0.06
26578 H 116.4775355529777 4.633948121427466 108.99382634732984 H 0.0 **** 0.06
26579 H 114.9152963743842 4.294284473474022 108.21116086687692 H 0.0 **** 0.06
26580 H 116.21530420135966 5.093809210844029 107.29426893234557 H 0.0 **** 0.06
26581 C 108.54485615478187 90.08466790471182 46.91678843038953 C 0.0 **** -0.24
26582 H 108.2554950998796 89.29333454228087 46.22454103793146 H 0.0 **** 0.06
26583 H 109.1594803035166 90.8166233023958 46.39373288327158 H 0.0 **** 0.06
26584 H 109.11358985565707 89.65504770878653 47.74215758064042 H 0.0 **** 0.06
26585 H 107.65097726113646 90.57087868568865 47.306256341229286 H 0.0 **** 0.06
26586 C 74.38256342597876 74.70299820194242 36.893965763007174 C 0.0 **** -0.24
26587 H 74.28450717313186 74.86477281137597 37.967723504942356 H 0.0 **** 0.06
26588 H 75.14368098888369 75.3730788621965 36.494490282163156 H 0.0 **** 0.06
26589 H 73.42792565792232 74.90508388568597 36.4073562056459 H 0.0 **** 0.06
26590 H 74.67332066640105 73.66953418454464 36.70774274043333 H 0.0 **** 0.06
26591 C 52.67090134438661 107.89581284967035 88.3764656560079 C 0.0 **** -0.24
26592 H 51.653883830850674 107.56359459599264 88.16750841208955 H 0.0 **** 0.06
26593 H 53.37731743027163 107.25661357075685 87.84482252633484 H 0.0 **** 0.06
26594 H 52.859755864226685 107.83451719552089 89.44768666855737 H 0.0 **** 0.06
26595 H 52.79261846117092 108.92658921452049 88.0443456321085 H 0.0 **** 0.06
26596 C 90.46452810668269 9.693873960224266 97.64240229305025 C 0.0 **** -0.24
26597 H 91.31338628592118 10.201509677783406 98.10172629359184 H 0.0 **** 0.06
26598 H 89.79048421019927 9.337168189974506 98.42117730813905 H 0.0 **** 0.06
26599 H 90.82190330832132 8.848731979203194 97.05426226475626 H 0.0 **** 0.06
26600 H 89.93414435612286 10.390349855570662 96.99322735828562 H 0.0 **** 0.06
26601 C 76.29582313417087 107.8527831645918 72.19923324992354 C 0.0 **** -0.24
26602 H 75.95561286201573 108.63999459616664 71.52790342491588 H 0.0 **** 0.06
26603 H 76.47439279574338 108.2718736115485 73.18967900915501 H 0.0 **** 0.06
26604 H 77.2206223312881 107.42153149051225 71.81555869556948 H 0.0 **** 0.06
26605 H 75.53324863381636 107.0764686486437 72.264037770485 H 0.0 **** 0.06
26606 C 19.11458924267542 64.70177532166358 121.5911838999643 C 0.0 **** -0.24
26607 H 19.04611183916947 63.70014597573643 122.01481483452736 H 0.0 **** 0.06
26608 H 18.477526800749203 64.76737989663886 120.70898879174801 H 0.0 **** 0.06
26609 H 20.1474441401445 64.90680540564719 121.30963970799436 H 0.0 **** 0.06
26610 H 18.788657932828215 65.43247813368973 122.33127908161212 H 0.0 **** 0.06
26611 C 67.21582125994058 111.01522211325062 116.61901713249648 C 0.0 **** -0.24
26612 H 67.09490718734355 110.02665956221566 117.06304261239188 H 0.0 **** 0.06
26613 H 67.30526767692157 110.9182666652116 115.53706256663469 H 0.0 **** 0.06
26614 H 68.11404893606249 111.48476937691586 117.01791314039042 H 0.0 **** 0.06
26615 H 66.34736583400235 111.62893129851622 116.85815707664636 H 0.0 **** 0.06
26616 C 42.27870655367127 37.92729213014479 70.90961000651797 C 0.0 **** -0.24
26617 H 42.60252525478148 38.949292612670206 71.10492548681694 H 0.0 **** 0.06
26618 H 41.53316842506467 37.63474800213169 71.64898916391601 H 0.0 **** 0.06
26619 H 43.13611394951914 37.2565803236817 70.97233944153825 H 0.0 **** 0.06
26620 H 41.84399762534525 37.869749197536805 69.91141278321288 H 0.0 **** 0.06
26621 C 105.31541382951886 45.073398816905794 110.49945635897127 C 0.0 **** -0.24
26622 H 106.05640232954454 45.73898210751994 110.9422617736361 H 0.0 **** 0.06
26623 H 104.54074047127972 45.66623219215273 110.01195297976044 H 0.0 **** 0.06
26624 H 104.86648093969707 44.459598127798294 111.28011163549317 H 0.0 **** 0.06
26625 H 105.79820123135248 44.42962264386576 109.76401479978063 H 0.0 **** 0.06
26626 C 71.57489626160734 75.90798704028455 45.60601140974741 C 0.0 **** -0.24
26627 H 71.11191319420894 76.8020676809341 46.022524491039746 H 0.0 **** 0.06
26628 H 71.82951145980348 76.08432932064605 44.56121134393624 H 0.0 **** 0.06
26629 H 70.87814955180338 75.07292815503257 45.67399927652483 H 0.0 **** 0.06
26630 H 72.4800108406138 75.67262300452549 46.16631052748895 H 0.0 **** 0.06
26631 C 105.52004108329244 117.85946978227045 98.27566953313992 C 0.0 **** -0.24
26632 H 105.24825092205273 117.52350153552777 99.27619196453793 H 0.0 **** 0.06
26633 H 104.63574714455902 117.85630844731637 97.63898444394961 H 0.0 **** 0.06
26634 H 106.27026018024301 117.18819522104232 97.8586834003999 H 0.0 **** 0.06
26635 H 105.92678942098935 118.86946901022381 98.32984587949369 H 0.0 **** 0.06
26636 C 1.060662162062215 87.55436122748338 34.57771259567783 C 0.0 **** -0.24
26637 H 1.6135610873339488 87.16266896955875 35.43237845990516 H 0.0 **** 0.06
26638 H 1.1550044218352298 88.63945772590938 34.55079088929269 H 0.0 **** 0.06
26639 H 0.008627382429295949 87.28277687340398 34.67082289175021 H 0.0 **** 0.06
26640 H 1.465316488825124 87.12988569637639 33.65824689602242 H 0.0 **** 0.06
26641 C 84.77874991230445 114.6408811692462 9.001361397714845 C 0.0 **** -0.24
26642 H 84.64011157604999 115.71795915862421 8.914533655706464 H 0.0 **** 0.06
26643 H 84.17266167962873 114.13500341274826 8.249452836383966 H 0.0 **** 0.06
26644 H 84.47240690111575 114.31383451975256 9.994608152042986 H 0.0 **** 0.06
26645 H 85.82993969497396 114.39539282986885 8.84639918900416 H 0.0 **** 0.06
26646 C 87.07433353183742 104.66470450355452 10.632813542107442 C 0.0 **** -0.24
26647 H 86.69202119817272 103.98087214670065 11.391312288531765 H 0.0 **** 0.06
26648 H 87.4044847603164 105.58749714596524 11.110574622575655 H 0.0 **** 0.06
26649 H 86.28613218720957 104.88881391495676 9.91473049192956 H 0.0 **** 0.06
26650 H 87.91567124646916 104.20195720248628 10.117945173304122 H 0.0 **** 0.06
26651 C 88.77722360514514 91.20656454117615 91.98286394082459 C 0.0 **** -0.24
26652 H 87.89888368888933 90.97061545528337 91.38257009990633 H 0.0 **** 0.06
26653 H 88.57930697623908 92.09660450384635 92.58070306202791 H 0.0 **** 0.06
26654 H 89.62747208116451 91.391424983018 91.3272041256377 H 0.0 **** 0.06
26655 H 89.00199322949214 90.368120650221 92.64207799040332 H 0.0 **** 0.06
26656 C 8.700792241176117 52.123556544111565 114.35195492521538 C 0.0 **** -0.24
26657 H 7.876734894538586 52.73714085574815 114.71741018001403 H 0.0 **** 0.06
26658 H 9.106517755468218 52.56511907656457 113.44127436189316 H 0.0 **** 0.06
26659 H 8.337600403820176 51.11800207978925 114.13890649503227 H 0.0 **** 0.06
26660 H 9.481644923409647 52.074640257062754 115.11053317677596 H 0.0 **** 0.06
26661 C 54.24434955958924 124.04039786239296 45.955164094186834 C 0.0 **** -0.24
26662 H 53.575289514431006 124.8291974898457 45.609072209780734 H 0.0 **** 0.06
26663 H 54.14555046033047 123.93046072871108 47.035401247285144 H 0.0 **** 0.06
26664 H 55.27258885130357 124.30270067941628 45.709066918369274 H 0.0 **** 0.06
26665 H 53.98120472307863 123.10157473561658 45.468049499203225 H 0.0 **** 0.06
26666 C 81.55024196772854 38.59294592910254 50.971498096459015 C 0.0 **** -0.24
26667 H 81.17182265784288 39.10183257956783 50.08472984455079 H 0.0 **** 0.06
26668 H 81.0608211789858 38.996331377031765 51.85870396201534 H 0.0 **** 0.06
26669 H 82.6266449284667 38.74815923118547 51.04780162452283 H 0.0 **** 0.06
26670 H 81.34151316661695 37.52581395318117 50.89383629794099 H 0.0 **** 0.06
26671 C 79.24585167450043 104.0254142936245 25.70529036293874 C 0.0 **** -0.24
26672 H 79.64439690318366 103.53781629944743 24.816471189700792 H 0.0 **** 0.06
26673 H 79.38499346671978 105.10307045988141 25.62268028345551 H 0.0 **** 0.06
26674 H 79.77104678667449 103.65742717462079 26.586904962508356 H 0.0 **** 0.06
26675 H 78.18283236543151 103.80155335913122 25.796438348523964 H 0.0 **** 0.06
26676 C 81.3571413406541 37.54396960034663 98.05714431406801 C 0.0 **** -0.24
26677 H 81.47427214956211 36.58553711263929 97.55155036795742 H 0.0 **** 0.06
26678 H 81.03461378594567 38.297361167118424 97.3374805678265 H 0.0 **** 0.06
26679 H 82.3090027661367 37.84266570121838 98.49543774693379 H 0.0 **** 0.06
26680 H 80.60862676206128 37.44949796056457 98.84447130747157 H 0.0 **** 0.06
26681 C 83.08059877526428 28.062259325000923 90.3762498343935 C 0.0 **** -0.24
26682 H 82.42628884648398 27.50488373090525 91.04536834841758 H 0.0 **** 0.06
26683 H 83.22810759261185 27.496432557429273 89.45636673038628 H 0.0 **** 0.06
26684 H 84.04307316667858 28.224795981112436 90.8608430263813 H 0.0 **** 0.06
26685 H 82.62475432217983 29.025283081297573 90.14178043740314 H 0.0 **** 0.06
26686 C 92.40744558682678 61.10497404350781 18.753640407328646 C 0.0 **** -0.24
26687 H 92.72230017222847 61.195462046317004 17.714152453916867 H 0.0 **** 0.06
26688 H 91.85425749428225 60.17487937642227 18.88513780931079 H 0.0 **** 0.06
26689 H 91.76746293798664 61.94784811489001 19.014038565899853 H 0.0 **** 0.06
26690 H 93.28514613265719 61.10078423429911 19.400355129549368 H 0.0 **** 0.06
26691 C 54.32690769397621 114.88341081923616 55.47984154420618 C 0.0 **** -0.24
26692 H 55.22694944538546 115.40443183434596 55.80634829278381 H 0.0 **** 0.06
26693 H 54.4012996425038 113.82861035281061 55.74459903358357 H 0.0 **** 0.06
26694 H 54.223845444828015 114.98086360261883 54.398115631591594 H 0.0 **** 0.06
26695 H 53.45665633352934 115.32154168003788 55.96795996856818 H 0.0 **** 0.06
26696 C 89.93719067671861 44.82807875733654 70.66938178637423 C 0.0 **** -0.24
26697 H 90.86112809741508 45.40660436635018 70.64021796599707 H 0.0 **** 0.06
26698 H 89.32691724621284 45.1631244118277 71.50833856704418 H 0.0 **** 0.06
26699 H 90.17495201201069 43.771752502340135 70.79035301370834 H 0.0 **** 0.06
26700 H 89.38838422175911 44.97381726028197 69.73973164012523 H 0.0 **** 0.06
26701 C 15.656629332294813 22.52630037921977 59.63730879260156 C 0.0 **** -0.24
26702 H 14.632145728048357 22.26331445757483 59.90015939940402 H 0.0 **** 0.06
26703 H 15.849695560144795 22.245139603660874 58.60211859338345 H 0.0 **** 0.06
26704 H 16.346610834073005 21.996615306385955 60.2934337093007 H 0.0 **** 0.06
26705 H 15.797156877250046 23.60071840531488 59.75443525135458 H 0.0 **** 0.06
26706 C 0.11511266622022731 89.34349340694037 75.08660245643057 C 0.0 **** -0.24
26707 H 0.6040558848569617 89.90287130789113 75.88328528119578 H 0.0 **** 0.06
26708 H 0.21569796975057898 89.88616103064935 74.14698385239616 H 0.0 **** 0.06
26709 H -0.9418140754431477 89.22013984462512 75.32437232056478 H 0.0 **** 0.06
26710 H 0.5820690741176691 88.36261005467833 74.99182204519384 H 0.0 **** 0.06
26711 C 119.52753894257691 38.317825219003225 95.566627785576 C 0.0 **** -0.24
26712 H 118.74752146639835 39.06301155208246 95.41087873497966 H 0.0 **** 0.06
26713 H 120.42516004275726 38.80583466623679 95.94777329990436 H 0.0 **** 0.06
26714 H 119.75451811048318 37.825808465429304 94.62184761161492 H 0.0 **** 0.06
26715 H 119.18272585370062 37.57642696274837 96.28844032751337 H 0.0 **** 0.06
26716 C 115.45765529005169 93.47072472614678 123.57927448790332 C 0.0 **** -0.24
26717 H 114.47367984895453 93.38984078609428 124.03996827655513 H 0.0 **** 0.06
26718 H 116.1355447440325 93.98873852613832 124.25800368429552 H 0.0 **** 0.06
26719 H 115.37597492459432 94.03104325742606 122.64726095179356 H 0.0 **** 0.06
26720 H 115.8442935746589 92.47280072823588 123.36974334561705 H 0.0 **** 0.06
26721 C 106.16969598337072 48.72544980506561 10.516685893216561 C 0.0 **** -0.24
26722 H 105.78636626474797 49.703640346607585 10.22692861576229 H 0.0 **** 0.06
26723 H 106.7310209875111 48.29470818381594 9.686923482883913 H 0.0 **** 0.06
26724 H 105.33776020695905 48.069765354817235 10.772129486140159 H 0.0 **** 0.06
26725 H 106.82583181167873 48.8334923791966 11.381140841359525 H 0.0 **** 0.06
26726 C 14.460370956491602 72.26180162153793 54.142091940197076 C 0.0 **** -0.24
26727 H 13.560850394609915 72.63662759023015 54.63166524825661 H 0.0 **** 0.06
26728 H 14.182924110326525 71.51825042653076 53.39365845841456 H 0.0 **** 0.06
26729 H 15.114317363494678 71.80413641833434 54.88502828796507 H 0.0 **** 0.06
26730 H 14.98205031654102 73.0880967237403 53.65845282380684 H 0.0 **** 0.06
26731 C 65.78662967897576 47.028373647179876 81.3642129525357 C 0.0 **** -0.24
26732 H 64.81349438108816 47.51215860519477 81.44886234122885 H 0.0 **** 0.06
26733 H 66.12530696468762 46.71807372917439 82.35237150705865 H 0.0 **** 0.06
26734 H 66.50445003418639 47.73006949411851 80.93779806468825 H 0.0 **** 0.06
26735 H 65.70299430290723 46.155879194191954 80.71697790279029 H 0.0 **** 0.06
26736 C 49.19730500499452 110.70251573064228 14.75813227888841 C 0.0 **** -0.24
26737 H 48.582654074988426 110.04684689392468 15.375579736337102 H 0.0 **** 0.06
26738 H 48.584153708561274 111.13567957415043 13.967548123612403 H 0.0 **** 0.06
26739 H 50.00928215891966 110.12675120305224 14.315144738558843 H 0.0 **** 0.06
26740 H 49.61060965958367 111.49993696742285 15.376238560830643 H 0.0 **** 0.06
26741 C 111.72373450592724 124.0156726144356 45.26231852846492 C 0.0 **** -0.24
26742 H 111.14772350246282 124.900600970243 45.531431503773334 H 0.0 **** 0.06
26743 H 112.24422924303892 123.63927466953788 46.14399172256584 H 0.0 **** 0.06
26744 H 112.45211340837136 124.27639883432161 44.49369717589187 H 0.0 **** 0.06
26745 H 111.05149917401154 123.24679681149114 44.881362664426206 H 0.0 **** 0.06
26746 C 42.90984866922174 25.392557373921676 75.25357887919436 C 0.0 **** -0.24
26747 H 43.72097507299635 24.696259407718628 75.4665408636334 H 0.0 **** 0.06
26748 H 42.628355874731675 25.31253836066304 74.20352722373661 H 0.0 **** 0.06
26749 H 43.23872667919002 26.40939041449738 75.46532511232147 H 0.0 **** 0.06
26750 H 42.05065410418688 25.150941723675267 75.87949205039688 H 0.0 **** 0.06
26751 C 99.72125691150592 34.09430144160734 41.67143419864075 C 0.0 **** -0.24
26752 H 100.07682082512753 34.651154039185485 42.53817416887236 H 0.0 **** 0.06
26753 H 100.57103436131462 33.66312233089786 41.1427182643138 H 0.0 **** 0.06
26754 H 99.18084215572708 34.766960511988486 41.004867313149106 H 0.0 **** 0.06
26755 H 99.05451537666515 33.297381532243605 42.00082013006829 H 0.0 **** 0.06
26756 C 19.242327619252706 106.81712840672336 38.465982951555304 C 0.0 **** -0.24
26757 H 19.531183636596836 107.4144307913925 39.32996657007601 H 0.0 **** 0.06
26758 H 20.070889445260036 106.16901890068095 38.17785597462279 H 0.0 **** 0.06
26759 H 18.9921101154207 107.47757887909052 37.63544751722276 H 0.0 **** 0.06
26760 H 18.375243348781282 106.2072664694227 38.71926931647414 H 0.0 **** 0.06
26761 C 122.19845656650386 12.27473134599694 109.01402634560597 C 0.0 **** -0.24
26762 H 122.16553610080422 11.533852832610819 109.81295749889651 H 0.0 **** 0.06
26763 H 122.92743517720982 13.046688322140767 109.2647581372152 H 0.0 **** 0.06
26764 H 121.21440258235742 12.72870730254374 108.8990556045782 H 0.0 **** 0.06
26765 H 122.48721369943036 11.790932556808343 108.08102058559675 H 0.0 **** 0.06
26766 C 100.50589841023239 58.00608671835097 59.58697886667781 C 0.0 **** -0.24
26767 H 100.92804664881231 57.77117757800124 60.56352236797795 H 0.0 **** 0.06
26768 H 101.30290717960837 58.31531570526347 58.9110823215656 H 0.0 **** 0.06
26769 H 99.78100112249287 58.81414079203306 59.688734847944175 H 0.0 **** 0.06
26770 H 100.009442259876 57.123148613908555 59.18364980149275 H 0.0 **** 0.06
26771 C 71.559128930278 30.796002362025092 81.72637478394267 C 0.0 **** -0.24
26772 H 71.2488240153155 30.43921562178531 80.74391265889176 H 0.0 **** 0.06
26773 H 71.79375225152802 31.85864850317313 81.67029675128401 H 0.0 **** 0.06
26774 H 72.44307967274699 30.24522467091623 82.04899493954804 H 0.0 **** 0.06
26775 H 70.75215348592224 30.638515105600447 82.44105375543859 H 0.0 **** 0.06
26776 C 26.732561040558465 112.80638194054016 15.414192481605426 C 0.0 **** -0.24
26777 H 26.601803532450333 113.88814373064336 15.458539672782479 H 0.0 **** 0.06
26778 H 27.699714596009613 112.57567452922756 14.966764459223157 H 0.0 **** 0.06
26779 H 25.938793076479044 112.37026344725717 14.807841282409413 H 0.0 **** 0.06
26780 H 26.689559869680096 112.39309716533383 16.42216337938953 H 0.0 **** 0.06
26781 C 76.78400437720842 9.129415983688546 32.31997773451843 C 0.0 **** -0.24
26782 H 76.21938718175505 8.843996414984218 33.20691783173015 H 0.0 **** 0.06
26783 H 76.44299107829278 8.539752770168008 31.468458513392704 H 0.0 **** 0.06
26784 H 77.84436808208955 8.944619897180047 32.48892704999571 H 0.0 **** 0.06
26785 H 76.62736484250755 10.188074517158697 32.11467104326175 H 0.0 **** 0.06
26786 C 103.30475241120362 54.94608800497741 11.899193640776375 C 0.0 **** -0.24
26787 H 104.00370038154057 54.98741707118285 11.063272353643356 H 0.0 **** 0.06
26788 H 103.53908400197133 54.08560916873449 12.525405706659399 H 0.0 **** 0.06
26789 H 102.28791269849785 54.85238527388992 11.51807227133234 H 0.0 **** 0.06
26790 H 103.3902347296887 55.85904115001716 12.487951654750265 H 0.0 **** 0.06
26791 C 107.12478616282482 97.08044054894027 8.549451588585981 C 0.0 **** -0.24
26792 H 107.91838154803617 96.78843329590133 9.237511074727223 H 0.0 **** 0.06
26793 H 107.29282789116209 98.10363208256798 8.213798858727102 H 0.0 **** 0.06
26794 H 106.16301227173935 97.0169616177839 9.058328891100075 H 0.0 **** 0.06
26795 H 107.12552226500654 96.41024466390014 7.689366892681221 H 0.0 **** 0.06
26796 C 90.97337730346112 55.44170460104421 75.24282825681371 C 0.0 **** -0.24
26797 H 89.88945071817585 55.38146437954977 75.33675876343099 H 0.0 **** 0.06
26798 H 91.42984744662834 55.315214687727945 76.22466227091567 H 0.0 **** 0.06
26799 H 91.2483063259308 56.41520208047609 74.83671324462907 H 0.0 **** 0.06
26800 H 91.3248055698844 54.655614811474166 74.57500441239372 H 0.0 **** 0.06
26801 C 53.79686577688169 44.687596052800586 53.0857413801337 C 0.0 **** -0.24
26802 H 52.848927505492966 44.22135225312945 53.35379257844585 H 0.0 **** 0.06
26803 H 54.477136856318964 44.64175503124426 53.936846325372755 H 0.0 **** 0.06
26804 H 53.62585576117176 45.728467526931325 52.81315048727362 H 0.0 **** 0.06
26805 H 54.23616493012841 44.15808969297342 52.24062366752668 H 0.0 **** 0.06
26806 C 43.02671816226402 78.84185070754614 49.61688013343502 C 0.0 **** -0.24
26807 H 43.25119001436329 78.8749037206374 48.55091316633434 H 0.0 **** 0.06
26808 H 42.90235040695494 79.85682311196797 49.9937492929613 H 0.0 **** 0.06
26809 H 43.84756064997508 78.35621931065828 50.145590375645156 H 0.0 **** 0.06
26810 H 42.108225910637046 78.27813753082998 49.77837970597784 H 0.0 **** 0.06
26811 C 101.49737285768305 86.60784511294165 114.11940777603706 C 0.0 **** -0.24
26812 H 100.97087395784632 86.69764185047809 115.0701218319555 H 0.0 **** 0.06
26813 H 100.81521723044912 86.22234727193593 113.36188562795135 H 0.0 **** 0.06
26814 H 102.33804305071223 85.92347114143519 114.23347179693687 H 0.0 **** 0.06
26815 H 101.86397605735144 87.58695546614537 113.81393007717946 H 0.0 **** 0.06
26816 C 117.44181962791279 39.14527628345519 32.749343257865235 C 0.0 **** -0.24
26817 H 118.41824175466304 39.43372685477701 32.36017773684671 H 0.0 **** 0.06
26818 H 117.56479696465824 38.350819488925936 33.48588973975143 H 0.0 **** 0.06
26819 H 116.81574598109717 38.78810502490842 31.931053429373947 H 0.0 **** 0.06
26820 H 116.96846645919378 40.00669208723809 33.21887516844174 H 0.0 **** 0.06
26821 C 33.07708348717492 84.39603374940458 116.53948990086707 C 0.0 **** -0.24
26822 H 32.29016892822855 84.45125649695797 117.29166848982288 H 0.0 **** 0.06
26823 H 33.47009169747733 85.39543410762707 116.35072756406873 H 0.0 **** 0.06
26824 H 32.66766675029899 83.98623565300244 115.61532636285992 H 0.0 **** 0.06
26825 H 33.878384592702986 83.75207912402203 116.89916277973501 H 0.0 **** 0.06
26826 C 67.61698403265922 108.16976460496319 9.712584549183571 C 0.0 **** -0.24
26827 H 66.75808275868829 107.68031204913143 10.17047257230315 H 0.0 **** 0.06
26828 H 67.50127498966901 109.25159907086741 9.787152490181366 H 0.0 **** 0.06
26829 H 67.68158412091154 107.88194653370476 8.663045451656942 H 0.0 **** 0.06
26830 H 68.52699426136786 107.8652007661492 10.22966768259306 H 0.0 **** 0.06
26831 C 52.43676163236563 64.4310008913722 22.412934373885264 C 0.0 **** -0.24
26832 H 51.787362572340605 63.564624890604605 22.54489376534582 H 0.0 **** 0.06
26833 H 53.21199034559426 64.42349802888225 23.178543156177255 H 0.0 **** 0.06
26834 H 51.8469459090213 65.34363041969019 22.500349935747778 H 0.0 **** 0.06
26835 H 52.89928473806643 64.38997207756228 21.42631653008516 H 0.0 **** 0.06
26836 C 97.57853442389131 30.847815989743992 80.28403495836426 C 0.0 **** -0.24
26837 H 96.96860368481788 31.43112131307862 79.59431248252372 H 0.0 **** 0.06
26838 H 97.71141396646294 29.840514166882883 79.8888302098498 H 0.0 **** 0.06
26839 H 97.08097800659232 30.79520620904978 81.25287476800321 H 0.0 **** 0.06
26840 H 98.55195463563649 31.323953401973796 80.40073093401685 H 0.0 **** 0.06
26841 C 45.69494310657802 111.88674479828182 25.122325712657158 C 0.0 **** -0.24
26842 H 45.26239554592098 111.02004458153834 24.622780886297733 H 0.0 **** 0.06
26843 H 45.62124463256907 111.75617505140917 26.20226497847358 H 0.0 **** 0.06
26844 H 45.15299459008975 112.78512267238415 24.82687570545781 H 0.0 **** 0.06
26845 H 46.74270929895732 111.9841072464734 24.83807183601283 H 0.0 **** 0.06
26846 C 4.792818524871144 27.161169060983127 119.30638011985575 C 0.0 **** -0.24
26847 H 5.7242921584856745 27.574015038624566 119.69431284743223 H 0.0 **** 0.06
26848 H 4.66834094338035 26.141194610019454 119.6695428081468 H 0.0 **** 0.06
26849 H 4.821737667709158 27.159340739086304 118.21718133232716 H 0.0 **** 0.06
26850 H 3.956154572533176 27.772950715581516 119.64659541693811 H 0.0 **** 0.06
26851 C 6.86855461254639 110.82650107391595 26.058102752105924 C 0.0 **** -0.24
26852 H 5.84840398082757 110.58092517354203 26.35299572605257 H 0.0 **** 0.06
26853 H 7.3563616561338705 111.37713973550302 26.86188258040235 H 0.0 **** 0.06
26854 H 6.84742890513354 111.43906050984333 25.156668141364747 H 0.0 **** 0.06
26855 H 7.419950128171109 109.90742161468427 25.859259472862334 H 0.0 **** 0.06
26856 C 19.652212346645825 103.13539200390125 100.41229988083262 C 0.0 **** -0.24
26857 H 19.427957439001148 102.85502732644267 99.3826969777778 H 0.0 **** 0.06
26858 H 20.422656353691735 103.90705509080709 100.41748365523873 H 0.0 **** 0.06
26859 H 20.008604450387992 102.2620738486819 100.95764813811307 H 0.0 **** 0.06
26860 H 18.750312196080273 103.51845950179603 100.88883327079876 H 0.0 **** 0.06
26861 C 38.93629148098198 38.6343771137385 60.556593700034796 C 0.0 **** -0.24
26862 H 39.79858709566276 38.80226911666043 61.20204956130664 H 0.0 **** 0.06
26863 H 38.020384620296106 38.7807965164477 61.129010228282255 H 0.0 **** 0.06
26864 H 38.96510800645665 37.61609982621885 60.16909703123929 H 0.0 **** 0.06
26865 H 38.96240174009046 39.33986095819493 59.72523542345414 H 0.0 **** 0.06
26866 C 73.93601495398677 13.025218488764068 86.9586446696828 C 0.0 **** -0.24
26867 H 74.28405225828892 13.851639101703995 87.57938920916155 H 0.0 **** 0.06
26868 H 74.43294682152792 12.105719688461875 87.26741378058067 H 0.0 **** 0.06
26869 H 74.1701820579654 13.232957011153275 85.91466374592349 H 0.0 **** 0.06
26870 H 72.8581537027793 12.913464913805967 87.07407404908675 H 0.0 **** 0.06
26871 C 91.68570316361027 5.639972684604658 4.418609203686504 C 0.0 **** -0.24
26872 H 91.49792742597768 6.214051668634198 5.326490446831151 H 0.0 **** 0.06
26873 H 91.42058777178997 4.596304143823346 4.5896137328970426 H 0.0 **** 0.06
26874 H 92.74093282181062 5.709285590449582 4.157043297947595 H 0.0 **** 0.06
26875 H 91.08194933791114 6.040703875030573 3.604723151144814 H 0.0 **** 0.06
26876 C 76.43446895762958 23.81017442365186 74.59537034845538 C 0.0 **** -0.24
26877 H 75.438775724908 23.531323467482082 74.25023001845142 H 0.0 **** 0.06
26878 H 76.3675444757524 24.216487315642098 75.60511819385464 H 0.0 **** 0.06
26879 H 76.85268260636498 24.563249384881345 73.9279318707869 H 0.0 **** 0.06
26880 H 77.07758611118479 22.93059849976902 74.59939320073074 H 0.0 **** 0.06
26881 C 78.32321787876214 123.93307040168733 73.31700730118692 C 0.0 **** -0.24
26882 H 79.2316851818751 124.40809966403503 73.69010001980523 H 0.0 **** 0.06
26883 H 77.6338729708691 124.69857388610103 72.95854279047623 H 0.0 **** 0.06
26884 H 77.85294279463122 123.36882224605733 74.12262141173197 H 0.0 **** 0.06
26885 H 78.57555577694279 123.25827832789156 72.49908191035559 H 0.0 **** 0.06
26886 C 118.59118377129644 78.0461741519577 39.330592598008735 C 0.0 **** -0.24
26887 H 118.5552748005076 78.9369599468254 38.70331679806763 H 0.0 **** 0.06
26888 H 119.09493157939059 78.28240626016932 40.268544254163494 H 0.0 **** 0.06
26889 H 119.13872566459821 77.2590445402598 38.812201281863885 H 0.0 **** 0.06
26890 H 117.57679842222971 77.70688345238634 39.53911565119498 H 0.0 **** 0.06
26891 C 28.75671132205693 6.272937355490402 42.98303990870315 C 0.0 **** -0.24
26892 H 28.663379840452308 5.880829386225635 43.99553447923452 H 0.0 **** 0.06
26893 H 27.872519857203258 6.861820502887973 42.73850194853439 H 0.0 **** 0.06
26894 H 28.849213550867745 5.445064231189626 42.28050727490006 H 0.0 **** 0.06
26895 H 29.643646961225926 6.9038427399946585 42.91913129260092 H 0.0 **** 0.06
26896 C 59.92938799682861 40.59214939778752 6.877603707908904 C 0.0 **** -0.24
26897 H 60.762042892527575 39.99192226520029 6.511343006676057 H 0.0 **** 0.06
26898 H 59.179771744102766 40.69100546770943 6.092868958993364 H 0.0 **** 0.06
26899 H 60.29131944599743 41.58068425720057 7.161873321614451 H 0.0 **** 0.06
26900 H 59.48481113384349 40.10505134135656 7.745686436494907 H 0.0 **** 0.06
26901 C 8.373999546701882 49.54760701613051 53.16332777773974 C 0.0 **** -0.24
26902 H 7.814812879688432 49.7468864790261 54.07780670303052 H 0.0 **** 0.06
26903 H 7.688776499030951 49.21180948162245 52.38429366047714 H 0.0 **** 0.06
26904 H 9.116296338673152 48.772822103165 53.35375752654957 H 0.0 **** 0.06
26905 H 8.87408822788052 50.45978179927479 52.837830953068476 H 0.0 **** 0.06
26906 C 81.2141159528511 70.68339775371078 107.65101138553945 C 0.0 **** -0.24
26907 H 80.91162098322701 70.18708651982769 108.57299872172048 H 0.0 **** 0.06
26908 H 80.33819866939093 70.84631073918314 107.02211310905639 H 0.0 **** 0.06
26909 H 81.93164676407648 70.05713611117883 107.11995804633831 H 0.0 **** 0.06
26910 H 81.67511737188944 71.64206496322171 107.88896008700746 H 0.0 **** 0.06
26911 C 119.03265240052139 55.41358320039055 72.00328280058864 C 0.0 **** -0.24
26912 H 118.93199934656508 55.410902126932314 70.91813835913803 H 0.0 **** 0.06
26913 H 119.40085783439616 54.44282638736561 72.33616372587633 H 0.0 **** 0.06
26914 H 118.06129999619321 55.60990176504427 72.45765407743099 H 0.0 **** 0.06
26915 H 119.73670898125067 56.19137282420803 72.3004786723886 H 0.0 **** 0.06
26916 C 26.61630496316809 44.42781614928299 96.60324486174146 C 0.0 **** -0.24
26917 H 26.145324333937296 44.2308645420795 95.63956126090405 H 0.0 **** 0.06
26918 H 27.69157603571469 44.26727173865149 96.52084731497386 H 0.0 **** 0.06
26919 H 26.20418935828087 43.75240339622769 97.35267265996983 H 0.0 **** 0.06
26920 H 26.423649134311717 45.45845380780446 96.89799790076685 H 0.0 **** 0.06
26921 C 4.81711521197272 43.60784278782563 63.765561678132514 C 0.0 **** -0.24
26922 H 4.495504877581908 43.7414649451416 62.73365348803412 H 0.0 **** 0.06
26923 H 3.9869963725737136 43.22362415689254 64.35825675838683 H 0.0 **** 0.06
26924 H 5.141618720372605 44.56572590002315 64.1722189409247 H 0.0 **** 0.06
26925 H 5.645399874524713 42.90004947502378 63.79890614010381 H 0.0 **** 0.06
26926 C 53.361336916813855 64.84910938874607 58.110808456164776 C 0.0 **** -0.24
26927 H 52.81330774873922 64.94096702959123 59.04783985482389 H 0.0 **** 0.06
26928 H 53.637097731039944 63.80613440291262 57.95143806897491 H 0.0 **** 0.06
26929 H 54.26297344635263 65.46029375477453 58.15679729818777 H 0.0 **** 0.06
26930 H 52.7333424758656 65.18918041039832 57.28746504079234 H 0.0 **** 0.06
26931 C 59.19312940876728 70.5797459609862 100.74638979922906 C 0.0 **** -0.24
26932 H 59.4182371534194 71.64264586745817 100.83098868533364 H 0.0 **** 0.06
26933 H 58.756963965461125 70.37809275204982 99.76721847556303 H 0.0 **** 0.06
26934 H 58.486012904307785 70.29395479647907 101.52515315847779 H 0.0 **** 0.06
26935 H 60.11181708813302 70.00308339172221 100.86106769827381 H 0.0 **** 0.06
26936 C 51.07005226825217 41.794786810086066 3.1001463426139253 C 0.0 **** -0.24
26937 H 51.236298355919246 42.789967921985124 2.687131177209551 H 0.0 **** 0.06
26938 H 51.318174957103565 41.796158035824476 4.161652806107895 H 0.0 **** 0.06
26939 H 51.70362922089694 41.07533169440438 2.579583770460232 H 0.0 **** 0.06
26940 H 50.02413799422871 41.517838685410254 2.9708569985251074 H 0.0 **** 0.06
26941 C 39.399994835684026 101.9035020695502 103.5383685186755 C 0.0 **** -0.24
26942 H 38.85980916000517 102.63734966557104 104.1362722179598 H 0.0 **** 0.06
26943 H 40.145169780617806 101.40638573940024 104.16051595823808 H 0.0 **** 0.06
26944 H 39.89700866466987 102.40592572620105 102.70856286299454 H 0.0 **** 0.06
26945 H 38.69921987178796 101.16409487788982 103.14931811173528 H 0.0 **** 0.06
26946 C 105.32324885092598 29.57764777455148 12.778473385712633 C 0.0 **** -0.24
26947 H 104.52444317034093 29.78666973700595 12.067175986106363 H 0.0 **** 0.06
26948 H 106.2751530241855 29.909462593917084 12.363533518407273 H 0.0 **** 0.06
26949 H 105.36495467251936 28.505878566968164 12.972883014306166 H 0.0 **** 0.06
26950 H 105.12759469575073 30.10897603391294 13.710649075489492 H 0.0 **** 0.06
26951 C 114.12942440430024 66.0997920679229 53.40256061772894 C 0.0 **** -0.24
26952 H 114.50843450905104 66.7823492554809 54.16259001432351 H 0.0 **** 0.06
26953 H 114.3601163193145 65.07377729726268 53.68865084845717 H 0.0 **** 0.06
26954 H 114.59816399458467 66.32542154025718 52.444955156359555 H 0.0 **** 0.06
26955 H 113.04894569893636 66.21848690689271 53.31436155973054 H 0.0 **** 0.06
26956 C 21.62411142843486 104.03612913712226 28.365093190174804 C 0.0 **** -0.24
26957 H 20.63810877860996 103.83178876300889 27.94863976553816 H 0.0 **** 0.06
26958 H 22.3475149592189 104.1357693446163 27.555175338146654 H 0.0 **** 0.06
26959 H 21.92114062783338 103.2140171219045 29.017186175476155 H 0.0 **** 0.06
26960 H 21.591806113500787 104.96192926648644 28.94005077781381 H 0.0 **** 0.06
26961 C 101.09672150850852 0.40062660374005077 69.95459595501332 C 0.0 **** -0.24
26962 H 100.107655083543 0.7568007178803207 69.66849762667265 H 0.0 **** 0.06
26963 H 101.02099336167723 -0.6212433089088023 70.32777807713562 H 0.0 **** 0.06
26964 H 101.50299452145865 1.0437001482265362 70.7358567366367 H 0.0 **** 0.06
26965 H 101.756533097259 0.421678512474319 69.08718417467817 H 0.0 **** 0.06
26966 C 44.48872568609531 25.986391588888353 10.518972591434565 C 0.0 **** -0.24
26967 H 45.35907753454818 25.79641842169228 9.89064896600659 H 0.0 **** 0.06
26968 H 43.80426373139806 25.1403274296525 10.45667505546038 H 0.0 **** 0.06
26969 H 43.983203524184894 26.889430802079872 10.174269350693084 H 0.0 **** 0.06
26970 H 44.80924629991923 26.121352094234453 11.551981740798986 H 0.0 **** 0.06
26971 C 65.89009900629955 64.82404195745838 11.770828067269363 C 0.0 **** -0.24
26972 H 65.57918195526753 65.59810414944582 11.068560264595185 H 0.0 **** 0.06
26973 H 65.46546326903743 63.866341545956374 11.465903080985814 H 0.0 **** 0.06
26974 H 65.53669208479646 65.0767819788426 12.769504005998783 H 0.0 **** 0.06
26975 H 66.97773926843162 64.75431653721071 11.77589949898774 H 0.0 **** 0.06
26976 C 106.20266350667015 111.92768292201765 18.649134669239878 C 0.0 **** -0.24
26977 H 107.11143431515256 111.345113770833 18.496525585943534 H 0.0 **** 0.06
26978 H 105.57466578865672 111.8613333889407 17.760442181869664 H 0.0 **** 0.06
26979 H 106.46644700505269 112.96972587773672 18.831514721337136 H 0.0 **** 0.06
26980 H 105.66040656198805 111.53424176442053 19.508838199069412 H 0.0 **** 0.06
26981 C 70.17977365036637 34.369803468099406 28.048495618485504 C 0.0 **** -0.24
26982 H 70.33067584289205 33.88491663137634 29.01227459665745 H 0.0 **** 0.06
26983 H 70.44826734308242 33.678348733583405 27.24859668869783 H 0.0 **** 0.06
26984 H 70.8063881330342 35.25883642905197 27.986476867125532 H 0.0 **** 0.06
26985 H 69.13285302911282 34.655507936748236 27.945370028546336 H 0.0 **** 0.06
26986 C 70.80054808980208 77.00728266057286 31.609040209198838 C 0.0 **** -0.24
26987 H 70.51804680252192 76.25750123255438 32.34890885207323 H 0.0 **** 0.06
26988 H 71.72339993923367 77.49591654335396 31.92161356161985 H 0.0 **** 0.06
26989 H 70.00646600862964 77.74947114958962 31.523432754405242 H 0.0 **** 0.06
26990 H 70.95287966346856 76.5252502353232 30.64364002765391 H 0.0 **** 0.06
26991 C 76.72043252239803 47.67977952835764 73.08270113622076 C 0.0 **** -0.24
26992 H 76.31754516755373 48.69007824317097 73.01373030282407 H 0.0 **** 0.06
26993 H 77.69327684831663 47.64251056213482 72.59241789809037 H 0.0 **** 0.06
26994 H 76.04016309883502 46.982845377302056 72.59499537138583 H 0.0 **** 0.06
26995 H 76.83158564737431 47.40453575937917 74.13258812036125 H 0.0 **** 0.06
26996 C 44.38358598304984 55.93606406663153 101.05186989467305 C 0.0 **** -0.24
26997 H 45.32712399538707 55.467620609615835 101.33153656047156 H 0.0 **** 0.06
26998 H 44.473138002190694 57.0187739154982 101.14892973088152 H 0.0 **** 0.06
26999 H 43.59192950962023 55.57681337090301 101.70802656599793 H 0.0 **** 0.06
27000 H 44.14425155487771 55.6820762945774 100.01971976132356 H 0.0 **** 0.06
27001 C 18.13790835432576 48.71205190130428 49.94916357916435 C 0.0 **** -0.24
27002 H 18.16245069265976 48.061617977091444 49.074210351669535 H 0.0 **** 0.06
27003 H 17.653391100280075 49.65268699816522 49.68823767585857 H 0.0 **** 0.06
27004 H 19.155468905351455 48.90778514796256 50.2858959299312 H 0.0 **** 0.06
27005 H 17.5782431887215 48.22359645518364 50.74774417244822 H 0.0 **** 0.06
27006 C 27.854583052425312 44.87161036326671 49.54958222119765 C 0.0 **** -0.24
27007 H 28.7336499270082 44.25096410181317 49.72726292304765 H 0.0 **** 0.06
27008 H 27.931355290066534 45.78619267772092 50.13714148859464 H 0.0 **** 0.06
27009 H 26.959384821621853 44.323856486323905 49.84430503032159 H 0.0 **** 0.06
27010 H 27.7954173911871 45.122189772556 48.49077579341406 H 0.0 **** 0.06
27011 C 72.42165019541184 51.98270431562224 98.06135857673095 C 0.0 **** -0.24
27012 H 71.44504277632427 52.21442921973966 98.48656703542778 H 0.0 **** 0.06
27013 H 72.4194718424443 52.221504145410734 96.99715010006045 H 0.0 **** 0.06
27014 H 72.63323619855055 50.92186107578294 98.1952977066415 H 0.0 **** 0.06
27015 H 73.18581888731745 52.57309286011616 98.56552046368643 H 0.0 **** 0.06
27016 C 22.058523684544767 47.073663774283716 109.15218829881742 C 0.0 **** -0.24
27017 H 22.523933963168297 48.04713309418884 108.9943291210726 H 0.0 **** 0.06
27018 H 21.141077979002354 47.19867677238052 109.72652860425832 H 0.0 **** 0.06
27019 H 22.745313982325932 46.428585969653625 109.70049335831165 H 0.0 **** 0.06
27020 H 21.826690307008953 46.62232839915097 108.18783134443083 H 0.0 **** 0.06
27021 C 90.72568928103999 62.9981593480864 54.8718938153701 C 0.0 **** -0.24
27022 H 91.1904819980722 62.10560005400883 54.450586972371156 H 0.0 **** 0.06
27023 H 91.33283508609844 63.3665682914819 55.69950277644486 H 0.0 **** 0.06
27024 H 89.72825964593001 62.750932242158555 55.23334299485842 H 0.0 **** 0.06
27025 H 90.65352435431791 63.76594090489397 54.102537375750956 H 0.0 **** 0.06
27026 C 94.62381207359039 94.73027639459147 88.02724803650972 C 0.0 **** -0.24
27027 H 94.00997184607942 93.83069972017174 87.97400585117781 H 0.0 **** 0.06
27028 H 94.00234325469312 95.57627962811193 88.32197635378284 H 0.0 **** 0.06
27029 H 95.0655070668547 94.92558750783289 87.05019747666103 H 0.0 **** 0.06
27030 H 95.41556859425981 94.58694190571057 88.76280399143047 H 0.0 **** 0.06
27031 C 11.492961988743787 22.057889003359293 16.5128049441295 C 0.0 **** -0.24
27032 H 11.768282367159202 23.10417275225352 16.375565081976646 H 0.0 **** 0.06
27033 H 12.35025221058794 21.505623957137956 16.899060761923636 H 0.0 **** 0.06
27034 H 11.18752048157171 21.634346211387424 15.557142565472361 H 0.0 **** 0.06
27035 H 10.668031856838269 21.989897175593512 17.22206237270339 H 0.0 **** 0.06
27036 C 119.7948651156237 64.76673244850781 41.40598249716595 C 0.0 **** -0.24
27037 H 119.95227340361595 65.83502612620867 41.26071755296334 H 0.0 **** 0.06
27038 H 120.53334425994811 64.38310974887747 42.11040063865096 H 0.0 **** 0.06
27039 H 119.8988476561735 64.25127116411556 40.45226928332204 H 0.0 **** 0.06
27040 H 118.79271706953959 64.59849462704415 41.80250882577059 H 0.0 **** 0.06
27041 C 89.52167329492855 78.00563024814454 35.90540135856964 C 0.0 **** -0.24
27042 H 90.41347669315162 77.74645158926887 36.476640245735766 H 0.0 **** 0.06
27043 H 89.81060416546181 78.55514612984511 35.009734047778764 H 0.0 **** 0.06
27044 H 88.86589960419494 78.62521056923687 36.517367710947646 H 0.0 **** 0.06
27045 H 88.99608701097094 77.09397081069581 35.61946799229538 H 0.0 **** 0.06
27046 C 119.89899624209035 85.67441987366044 93.79082742186722 C 0.0 **** -0.24
27047 H 119.39589478973443 86.42502435466923 93.18075399903299 H 0.0 **** 0.06
27048 H 119.45069037060111 84.69775979285714 93.60717921393842 H 0.0 **** 0.06
27049 H 119.79230917691004 85.93165668472858 94.84446577490834 H 0.0 **** 0.06
27050 H 120.95688022138249 85.64416914589884 93.52888827621689 H 0.0 **** 0.06
27051 C 2.2326303533644527 63.41856409643239 120.6417122087787 C 0.0 **** -0.24
27052 H 3.1023852472629905 64.03357851192303 120.41115117969568 H 0.0 **** 0.06
27053 H 2.561787796579811 62.468194416148165 121.0631556951911 H 0.0 **** 0.06
27054 H 1.665689344898853 63.23439892510089 119.72943003609959 H 0.0 **** 0.06
27055 H 1.60175928833638 63.93720594271865 121.36324461590758 H 0.0 **** 0.06
27056 C 56.27049745780036 115.92174987569373 49.944838379371845 C 0.0 **** -0.24
27057 H 56.11890627660321 115.15182430202344 49.18905509606253 H 0.0 **** 0.06
27058 H 56.00804662069933 116.89505229182541 49.5298411637317 H 0.0 **** 0.06
27059 H 57.316002167905054 115.9282936138106 50.25276496004744 H 0.0 **** 0.06
27060 H 55.638828790815296 115.71208302152972 50.80906827162107 H 0.0 **** 0.06
27061 C 89.24210464294788 0.7449858807334362 45.19612957109783 C 0.0 **** -0.24
27062 H 88.63943962546114 1.493745600394167 45.70967064780339 H 0.0 **** 0.06
27063 H 90.0244787539422 0.38747165237052883 45.865029409509106 H 0.0 **** 0.06
27064 H 89.69575547884 1.1882553467922587 44.309660842250295 H 0.0 **** 0.06
27065 H 88.60706721901735 -0.09099261227837196 44.89994680562066 H 0.0 **** 0.06
27066 C 8.392652901698963 90.61055938311712 82.56691197473897 C 0.0 **** -0.24
27067 H 7.800806703561033 91.2551809092291 81.91642375921468 H 0.0 **** 0.06
27068 H 7.726244025423409 90.00152810846602 83.17730594282742 H 0.0 **** 0.06
27069 H 9.018842093326125 91.22453097968109 83.21316781252608 H 0.0 **** 0.06
27070 H 9.023368163155723 89.96240714817408 81.95806907820558 H 0.0 **** 0.06
27071 C 123.04185686832778 24.22845465573141 98.6683740729029 C 0.0 **** -0.24
27072 H 123.68195086216417 23.889913727392965 99.48372091968885 H 0.0 **** 0.06
27073 H 122.97317620416476 23.445476195831617 97.91225736306788 H 0.0 **** 0.06
27074 H 123.46715795713698 25.127919117867748 98.22278413600527 H 0.0 **** 0.06
27075 H 122.0468715692553 24.450408173320994 99.05473869474636 H 0.0 **** 0.06
27076 C 105.25672771645833 113.34756946565017 88.90172642112285 C 0.0 **** -0.24
27077 H 105.05753100823915 114.10728387952818 88.14639910910057 H 0.0 **** 0.06
27078 H 104.50081553223589 113.40745002158897 89.68465923361299 H 0.0 **** 0.06
27079 H 106.24247622441516 113.51559214196337 89.33425492646776 H 0.0 **** 0.06
27080 H 105.22554620202732 112.36047358185508 88.43973922235574 H 0.0 **** 0.06
27081 C 19.661573949844353 105.59210230848242 3.760881482695652 C 0.0 **** -0.24
27082 H 19.414747352048153 104.88809410989907 2.9671921809240303 H 0.0 **** 0.06
27083 H 20.729888135942815 105.80950767931344 3.7347764511551134 H 0.0 **** 0.06
27084 H 19.40272442161546 105.15594046516112 4.725856866908856 H 0.0 **** 0.06
27085 H 19.099296375649885 106.51497505307596 3.6170636915986734 H 0.0 **** 0.06
27086 C 96.74310010854691 61.734871697095656 119.94622186594677 C 0.0 **** -0.24
27087 H 95.68302211792343 61.71403932112244 119.69207543212119 H 0.0 **** 0.06
27088 H 97.03752854189119 62.75501370053712 120.19268666790636 H 0.0 **** 0.06
27089 H 97.32810309019041 61.383421163587116 119.0963143766906 H 0.0 **** 0.06
27090 H 96.92270896316657 61.08621868177592 120.80435221827166 H 0.0 **** 0.06
27091 C 118.15218935351766 60.61105830022822 35.76659862339079 C 0.0 **** -0.24
27092 H 117.5130845629252 61.48901902762816 35.68372142780467 H 0.0 **** 0.06
27093 H 118.59947605624575 60.394415788269356 34.796229434801376 H 0.0 **** 0.06
27094 H 117.55738576578909 59.757537256905636 36.09167126165741 H 0.0 **** 0.06
27095 H 118.94003390286628 60.802879738608084 36.49537172651591 H 0.0 **** 0.06
27096 C 64.00092626650184 11.354696706828804 79.68217918230226 C 0.0 **** -0.24
27097 H 63.58860762149584 11.04068382320827 80.64168739664869 H 0.0 **** 0.06
27098 H 63.43786383673074 12.209624089719284 79.30753189769791 H 0.0 **** 0.06
27099 H 63.93024491581298 10.532074250676601 78.97051201839369 H 0.0 **** 0.06
27100 H 65.04610481081232 11.635281142506813 79.8107049287033 H 0.0 **** 0.06
27101 C 28.212030926741477 110.12365885670816 43.435558439863904 C 0.0 **** -0.24
27102 H 28.28323715916852 111.13962249901265 43.04730948494097 H 0.0 **** 0.06
27103 H 28.003839864097174 109.43481448414126 42.61691345271578 H 0.0 **** 0.06
27104 H 27.40735416658812 110.07108449417713 44.169398335203724 H 0.0 **** 0.06
27105 H 29.15446381713616 109.85036810505522 43.91057016681981 H 0.0 **** 0.06
27106 C 111.20801974169734 56.397565336231935 91.71099281344112 C 0.0 **** -0.24
27107 H 111.84600043948745 56.02021461353593 90.91126485011293 H 0.0 **** 0.06
27108 H 111.628479872877 56.112595134370224 92.6759601837386 H 0.0 **** 0.06
27109 H 110.20898463685512 55.97264354195249 91.6093853296944 H 0.0 **** 0.06
27110 H 111.1486344818345 57.484456743224655 91.64599112073088 H 0.0 **** 0.06
27111 C 24.042511525137343 121.98393359533668 102.42415531855102 C 0.0 **** -0.24
27112 H 24.488921982594718 121.89491554888338 103.41393465347392 H 0.0 **** 0.06
27113 H 23.108361040365708 122.54073916677146 102.49567536782263 H 0.0 **** 0.06
27114 H 23.843583322352004 120.98916465164623 102.02458547116578 H 0.0 **** 0.06
27115 H 24.72990514755452 122.5103113982102 101.76137242465336 H 0.0 **** 0.06
27116 C 86.4593047741036 58.14115570937702 96.74339883169284 C 0.0 **** -0.24
27117 H 85.84385640444879 58.01603140047877 95.85200668034213 H 0.0 **** 0.06
27118 H 85.98059155340795 58.85116791406864 97.41812622263473 H 0.0 **** 0.06
27119 H 87.44120028959301 58.51717312807483 96.45599701394303 H 0.0 **** 0.06
27120 H 86.57110947448558 57.18051785502132 97.24615556027459 H 0.0 **** 0.06
27121 C 60.38993670736346 72.93988039104035 47.35486331283985 C 0.0 **** -0.24
27122 H 60.60574702230939 72.04338548705756 47.936534637425666 H 0.0 **** 0.06
27123 H 61.02918756955886 73.75604907707358 47.69464093398307 H 0.0 **** 0.06
27124 H 59.34478139237777 73.21672577706535 47.488334798300045 H 0.0 **** 0.06
27125 H 60.581944849804046 72.74312714618168 46.29941183649308 H 0.0 **** 0.06
27126 C 83.00742459108614 35.35797890299878 36.13736454542175 C 0.0 **** -0.24
27127 H 82.13472896645015 35.89900923647204 35.77158423936696 H 0.0 **** 0.06
27128 H 83.91302695510836 35.875458776864974 35.81996152933917 H 0.0 **** 0.06
27129 H 83.00543551771841 34.346360515236626 35.729655005866505 H 0.0 **** 0.06
27130 H 82.97775534175025 35.31104412779848 37.225529753688136 H 0.0 **** 0.06
27131 C 37.21031781368765 43.203079318797876 2.865280491989637 C 0.0 **** -0.24
27132 H 38.15026559985802 42.758081686506046 2.5374085306253846 H 0.0 **** 0.06
27133 H 37.25669410108526 43.40049528510315 3.936280439057498 H 0.0 **** 0.06
27134 H 36.39097488069069 42.515859219547465 2.6567538858940623 H 0.0 **** 0.06
27135 H 37.045919319660186 44.13857891048876 2.329760742053452 H 0.0 **** 0.06
27136 C 84.04823114614736 78.71715445699897 124.29690486109018 C 0.0 **** -0.24
27137 H 84.15298157427365 77.63331453193081 124.25509534511133 H 0.0 **** 0.06
27138 H 84.89040772330198 79.18332956337855 123.78468602550385 H 0.0 **** 0.06
27139 H 84.03097004856242 79.04094532236297 125.33725826420232 H 0.0 **** 0.06
27140 H 83.11800834028953 79.01066476577415 123.80983302931935 H 0.0 **** 0.06
27141 C 119.1817735544083 39.673845402713454 101.54623078394309 C 0.0 **** -0.24
27142 H 119.89265070441468 39.794796578389594 100.72932555366413 H 0.0 **** 0.06
27143 H 119.25413202821588 38.66112281143549 101.943269739009 H 0.0 **** 0.06
27144 H 118.17055898706208 39.84819034682951 101.17652586326798 H 0.0 **** 0.06
27145 H 119.40918895157625 40.391831407543435 102.33463174687168 H 0.0 **** 0.06
27146 C 35.845712303873114 70.35135009643153 58.10058210392549 C 0.0 **** -0.24
27147 H 36.83245688120259 70.33546889402533 57.63662554240514 H 0.0 **** 0.06
27148 H 35.51311589798162 71.38349524510866 58.21026219789081 H 0.0 **** 0.06
27149 H 35.898893607215655 69.8798068039645 59.081760664699516 H 0.0 **** 0.06
27150 H 35.14100607036208 69.80644122982 57.47223652056289 H 0.0 **** 0.06
27151 C 89.52752565577306 82.13307022663469 106.27537437725707 C 0.0 **** -0.24
27152 H 89.90392496262822 82.9662203598955 105.68087274923127 H 0.0 **** 0.06
27153 H 89.5329430238427 82.4084140789984 107.3302934045166 H 0.0 **** 0.06
27154 H 90.16428305116753 81.26159089302891 106.12243808481425 H 0.0 **** 0.06
27155 H 88.5088940929328 81.89746093595114 105.96543927716561 H 0.0 **** 0.06
27156 C 5.101233467367706 112.01964198224815 19.66458388927623 C 0.0 **** -0.24
27157 H 5.420009233793536 112.12081325405532 20.7021941784883 H 0.0 **** 0.06
27158 H 4.125256052537907 111.53479658906431 19.62950145858298 H 0.0 **** 0.06
27159 H 5.82612035524906 111.41485339603409 19.119379805513802 H 0.0 **** 0.06
27160 H 5.033750304023471 113.00672116922439 19.207047645243904 H 0.0 **** 0.06
27161 C 29.966348046778457 122.52978774606905 70.30815613956696 C 0.0 **** -0.24
27162 H 30.588275147193016 122.5938422558423 69.4146140456698 H 0.0 **** 0.06
27163 H 29.784651539499187 123.53229600893255 70.6961371881253 H 0.0 **** 0.06
27164 H 30.47761553760339 121.93386656757193 71.0640722721057 H 0.0 **** 0.06
27165 H 29.015886478990616 122.05939259913248 70.05583504979296 H 0.0 **** 0.06
27166 C 36.4367760201203 35.2996539735744 118.91918276507789 C 0.0 **** -0.24
27167 H 36.66189669474537 34.63460817272524 119.75262829093771 H 0.0 **** 0.06
27168 H 36.1409704168207 36.275502753963906 119.30299893983289 H 0.0 **** 0.06
27169 H 35.62306616473608 34.87862542291757 118.32818363799427 H 0.0 **** 0.06
27170 H 37.32247473397892 35.40836855825541 118.29279018553578 H 0.0 **** 0.06
27171 C 87.28153005375182 87.75047599448418 113.28666414782947 C 0.0 **** -0.24
27172 H 87.04549658185044 87.43414170435932 114.30243848098928 H 0.0 **** 0.06
27173 H 86.381170112821 87.70634730941748 112.67413959665845 H 0.0 **** 0.06
27174 H 88.03928855466324 87.08764588816098 112.8671440785468 H 0.0 **** 0.06
27175 H 87.66146706457249 88.771984874569 113.3032829058256 H 0.0 **** 0.06
27176 C 10.246986761434389 54.742966526716884 40.79300207992194 C 0.0 **** -0.24
27177 H 10.079751052695066 54.11057535024969 39.92161165265318 H 0.0 **** 0.06
27178 H 11.256706454782481 54.57834827887655 41.17232359252557 H 0.0 **** 0.06
27179 H 9.522009600284747 54.49321378926959 41.568448697340386 H 0.0 **** 0.06
27180 H 10.131104711700246 55.78929823847187 40.51004268807007 H 0.0 **** 0.06
27181 C 45.64614033116564 46.27034065034414 106.45842838745057 C 0.0 **** -0.24
27182 H 44.56667857426288 46.17426624430931 106.34611776364306 H 0.0 **** 0.06
27183 H 45.94713244120797 45.872230165576184 107.42790894206325 H 0.0 **** 0.06
27184 H 45.9265307511119 47.3221572042936 106.39395428829664 H 0.0 **** 0.06
27185 H 46.145017930987535 45.71244372835994 105.66627319622745 H 0.0 **** 0.06
27186 C 51.71426278285108 115.39255469713208 95.21447917908148 C 0.0 **** -0.24
27187 H 51.573333979356896 114.67173628456038 96.01939256191105 H 0.0 **** 0.06
27188 H 52.21777583709287 114.908315833806 94.37801279462067 H 0.0 **** 0.06
27189 H 52.32285568572691 116.22297519504872 95.57350595269233 H 0.0 **** 0.06
27190 H 50.74481493242914 115.76758484820726 94.88836740422585 H 0.0 **** 0.06
27191 C 99.23759733372088 91.81361145790896 52.065252760209304 C 0.0 **** -0.24
27192 H 98.73280519174352 91.5748485542505 51.12952478737081 H 0.0 **** 0.06
27193 H 98.82254087922053 91.20303235088156 52.86788036026417 H 0.0 **** 0.06
27194 H 99.09200767239116 92.8678940947802 52.299101944868596 H 0.0 **** 0.06
27195 H 100.30356408205733 91.60742505494062 51.96628411857451 H 0.0 **** 0.06
27196 C 54.61236747978188 96.9309867248775 44.76109410302249 C 0.0 **** -0.24
27197 H 53.764056098424476 97.08764993890978 44.09367352619178 H 0.0 **** 0.06
27198 H 54.559047379077526 97.63869551524704 45.58792836791201 H 0.0 **** 0.06
27199 H 55.540325792684826 97.08407085700372 44.20965656977252 H 0.0 **** 0.06
27200 H 54.58483587485483 95.91314465338812 45.15039764377826 H 0.0 **** 0.06
27201 C 60.034660902824115 64.05713753232637 100.44415831197358 C 0.0 **** -0.24
27202 H 59.52519526371529 64.2470511359539 101.38873349636606 H 0.0 **** 0.06
27203 H 59.496249745805784 63.28745959121993 99.89085367801223 H 0.0 **** 0.06
27204 H 61.05122203075152 63.71848550765655 100.64155114308505 H 0.0 **** 0.06
27205 H 60.06346872043366 64.97481552218322 99.85727426401749 H 0.0 **** 0.06
27206 C 8.770420069289031 103.21234610104925 11.728395223058214 C 0.0 **** -0.24
27207 H 8.83852462230567 102.57742806159241 10.844466146131424 H 0.0 **** 0.06
27208 H 8.067730005629244 102.77282662780512 12.437737962644746 H 0.0 **** 0.06
27209 H 8.42180557847442 104.20305874505439 11.438036719462445 H 0.0 **** 0.06
27210 H 9.7523310832905 103.29401956253116 12.192978731014819 H 0.0 **** 0.06
27211 C 44.423163859201765 34.96368342429278 33.79707185091644 C 0.0 **** -0.24
27212 H 43.576502572942815 35.24318419842419 33.170332932234366 H 0.0 **** 0.06
27213 H 44.79614838532987 33.98694043100534 33.487948238855004 H 0.0 **** 0.06
27214 H 44.10560941562994 34.91916476122455 34.83831769738968 H 0.0 **** 0.06
27215 H 45.2146344759019 35.70528641322301 33.68947087442733 H 0.0 **** 0.06
27216 C 20.068233103268547 89.23812909396874 58.86671734773067 C 0.0 **** -0.24
27217 H 20.287160937600355 89.40809910287999 57.81251930694964 H 0.0 **** 0.06
27218 H 19.040667941070996 88.8871689706183 58.97211017115589 H 0.0 **** 0.06
27219 H 20.191145144658584 90.17090732219476 59.417398863495066 H 0.0 **** 0.06
27220 H 20.751538648763386 88.48798876078627 59.263645135904056 H 0.0 **** 0.06
27221 C 22.323959933357514 98.44495224958095 9.491806559929135 C 0.0 **** -0.24
27222 H 22.615974519203917 97.80453806427928 8.658909858931732 H 0.0 **** 0.06
27223 H 23.149797158821855 99.10969105351413 9.744588856692193 H 0.0 **** 0.06
27224 H 22.076171451494304 97.82688842684081 10.355366483649561 H 0.0 **** 0.06
27225 H 21.45440323481924 99.03633347554623 9.20657673474906 H 0.0 **** 0.06
27226 C 13.756202682705698 92.12163377181575 16.1755243252463 C 0.0 **** -0.24
27227 H 13.351150917750534 91.69514320147626 17.09342224406916 H 0.0 **** 0.06
27228 H 14.155039333487203 91.32339207767107 15.549739843058404 H 0.0 **** 0.06
27229 H 14.552885821053724 92.82319564433489 16.42226225399523 H 0.0 **** 0.06
27230 H 12.965482659585035 92.6441176067473 15.63824308624001 H 0.0 **** 0.06
27231 C 14.232247369415344 53.78410324935487 47.22545598100238 C 0.0 **** -0.24
27232 H 14.031307500395258 52.96027511700362 47.91023337432485 H 0.0 **** 0.06
27233 H 15.00871721281736 54.42415372875223 47.646810678155745 H 0.0 **** 0.06
27234 H 13.322726557396027 54.36448468078652 47.077767543443976 H 0.0 **** 0.06
27235 H 14.569142655487756 53.38535196441006 46.26798862004674 H 0.0 **** 0.06
27236 C 86.14712600047841 69.81414903650219 7.304558824193123 C 0.0 **** -0.24
27237 H 86.65066844888048 68.84848073432354 7.27913510333731 H 0.0 **** 0.06
27238 H 86.42999520002849 70.39552099245444 6.427403572999353 H 0.0 **** 0.06
27239 H 86.43882464724055 70.35228866617766 8.206963608390268 H 0.0 **** 0.06
27240 H 85.0677323129658 69.66146928144357 7.307182417529262 H 0.0 **** 0.06
27241 C 117.23077124283397 74.9576691442607 46.165363546955916 C 0.0 **** -0.24
27242 H 116.67119843641335 74.29030182918584 45.51102970978749 H 0.0 **** 0.06
27243 H 117.38042557708121 74.47824438453387 47.13321386289138 H 0.0 **** 0.06
27244 H 116.67346486447084 75.88468367323992 46.30184210197662 H 0.0 **** 0.06
27245 H 118.19924533051872 75.17942386280163 45.71609687868843 H 0.0 **** 0.06
27246 C 78.71768297351761 91.46495029775049 56.21857199859706 C 0.0 **** -0.24
27247 H 78.82267249629204 90.8180182065883 57.088718366356105 H 0.0 **** 0.06
27248 H 79.46097036638135 91.1908950433956 55.47013612510413 H 0.0 **** 0.06
27249 H 78.86781710417554 92.50287582619058 56.517876388058454 H 0.0 **** 0.06
27250 H 77.7181747337886 91.35021346311254 55.79895377563311 H 0.0 **** 0.06
27251 C 94.00855332122944 47.66635958173012 95.42260939004066 C 0.0 **** -0.24
27252 H 94.981781134215 47.18445647758526 95.5185820774461 H 0.0 **** 0.06
27253 H 94.13785541380042 48.66947863141533 95.0150717855293 H 0.0 **** 0.06
27254 H 93.53743271367676 47.73047607062168 96.4034657293293 H 0.0 **** 0.06
27255 H 93.37786618719497 47.0805780788084 94.75482693358464 H 0.0 **** 0.06
27256 C 76.18251671982284 0.6960491647682261 6.441830665296379 C 0.0 **** -0.24
27257 H 76.90952449789819 1.4348497837303 6.104738634110191 H 0.0 **** 0.06
27258 H 76.25103417473576 0.5868789399421814 7.5245406767064935 H 0.0 **** 0.06
27259 H 76.39284384274737 -0.26222234653829446 5.9663404483530655 H 0.0 **** 0.06
27260 H 75.17919836026846 1.0231413928420494 6.171278299101317 H 0.0 **** 0.06
27261 C 67.11591911556172 16.359510793630825 70.78329839358408 C 0.0 **** -0.24
27262 H 68.14425417807288 16.387140399928214 71.14541492016033 H 0.0 **** 0.06
27263 H 66.8762629962149 17.307512495084115 70.30013537216514 H 0.0 **** 0.06
27264 H 66.44000021535214 16.197528391734746 71.62282209085427 H 0.0 **** 0.06
27265 H 67.0049358454626 15.54748043497204 70.06529416571951 H 0.0 **** 0.06
27266 C 25.926179155306443 113.10167797696576 102.4507934783512 C 0.0 **** -0.24
27267 H 25.28333858570096 112.86617848400542 103.29824237478144 H 0.0 **** 0.06
27268 H 25.65640028514065 114.07915567396515 102.05014094096553 H 0.0 **** 0.06
27269 H 25.801221531084593 112.34403398172068 101.67705845489041 H 0.0 **** 0.06
27270 H 26.96610663975622 113.11775106751321 102.77828887669256 H 0.0 **** 0.06
27271 C 98.34233298197167 14.554596995238022 74.36949624306698 C 0.0 **** -0.24
27272 H 97.95776607956525 15.545442296690286 74.12668845679502 H 0.0 **** 0.06
27273 H 97.51151720240567 13.853946137857221 74.45905226845815 H 0.0 **** 0.06
27274 H 98.8862419455606 14.596902870164676 75.31272151644987 H 0.0 **** 0.06
27275 H 99.01381459308979 14.222148416353026 73.57728721523637 H 0.0 **** 0.06
27276 C 67.62238449129194 11.901501141637485 45.75967444515163 C 0.0 **** -0.24
27277 H 67.7562636764537 12.130474175909193 46.81718636073063 H 0.0 **** 0.06
27278 H 67.65276441388562 10.822043367867494 45.61513163040044 H 0.0 **** 0.06
27279 H 68.4212348184229 12.368818920200006 45.182865969494685 H 0.0 **** 0.06
27280 H 66.65954507245175 12.286270548423648 45.42467978444242 H 0.0 **** 0.06
27281 C 73.85471447101223 120.2550527531659 4.735988652312528 C 0.0 **** -0.24
27282 H 72.7742669825409 120.1155440227813 4.778181934592624 H 0.0 **** 0.06
27283 H 74.3512915658827 119.34734179430633 5.0798981586934815 H 0.0 **** 0.06
27284 H 74.13889354816489 121.09003025175353 5.3758288629740605 H 0.0 **** 0.06
27285 H 74.15348810892685 120.46600406076877 3.708824300646768 H 0.0 **** 0.06
27286 C 44.92111045358139 109.77705065433517 9.188177107936276 C 0.0 **** -0.24
27287 H 45.76329618809936 109.10756029317115 9.358677751598915 H 0.0 **** 0.06
27288 H 44.11290442007184 109.52541523503248 9.87542332942268 H 0.0 **** 0.06
27289 H 44.57257317700912 109.66898965161879 8.161700501151813 H 0.0 **** 0.06
27290 H 45.23604725441662 110.80688397697206 9.358106133597904 H 0.0 **** 0.06
27291 C 96.75045794543266 60.4249399283287 96.62441683397736 C 0.0 **** -0.24
27292 H 97.71195215666975 60.927019047978916 96.52171779420368 H 0.0 **** 0.06
27293 H 96.76313145669076 59.49469391001587 96.05565459614184 H 0.0 **** 0.06
27294 H 95.96056574255189 61.073418304576606 96.24446045628639 H 0.0 **** 0.06
27295 H 96.56574323830364 60.20564698228323 97.67671188034005 H 0.0 **** 0.06
27296 C 108.84424967746074 40.854226217291284 14.91345873595364 C 0.0 **** -0.24
27297 H 109.8307648925608 40.83729758415387 14.449197054383916 H 0.0 **** 0.06
27298 H 108.910582365986 40.44430698669515 15.921256287649044 H 0.0 **** 0.06
27299 H 108.15389405323987 40.25314786398587 14.321067251797885 H 0.0 **** 0.06
27300 H 108.484315503208 41.88190223899562 14.960767099861954 H 0.0 **** 0.06
27301 C 50.03955325208511 84.77734358345278 19.793100374467656 C 0.0 **** -0.24
27302 H 49.211054214320825 85.03395251329984 19.13297167136642 H 0.0 **** 0.06
27303 H 49.980554678018734 83.71977125600532 20.055008331623185 H 0.0 **** 0.06
27304 H 49.98245335340533 85.38020536401578 20.69956327880152 H 0.0 **** 0.06
27305 H 50.98359753554564 84.97321432048095 19.284011200166447 H 0.0 **** 0.06
27306 C 7.767083043805343 12.340171717332552 70.45729436274434 C 0.0 **** -0.24
27307 H 6.892328943205968 12.637911149032163 69.88006551366209 H 0.0 **** 0.06
27308 H 8.670892132484141 12.657314923699587 69.93726069717974 H 0.0 **** 0.06
27309 H 7.775318448267541 11.256663722913416 70.57242589126858 H 0.0 **** 0.06
27310 H 7.729840756754669 12.81028027240535 71.44109809377767 H 0.0 **** 0.06
27311 C 67.50426901401548 90.35747132173468 68.50310283655472 C 0.0 **** -0.24
27312 H 68.22167540806832 89.58246733649155 68.77269065001731 H 0.0 **** 0.06
27313 H 66.50907370202171 89.91966729348194 68.42618323210019 H 0.0 **** 0.06
27314 H 67.78501998474796 90.79380574293147 67.54506692099758 H 0.0 **** 0.06
27315 H 67.50200022200733 91.13243403504926 69.26958268008897 H 0.0 **** 0.06
27316 C 122.1361984576613 34.60824292096671 19.748691880828517 C 0.0 **** -0.24
27317 H 121.49457352266131 34.112526613207606 20.476516338214537 H 0.0 **** 0.06
27318 H 121.51951448654836 35.100776641810086 18.99749012904283 H 0.0 **** 0.06
27319 H 122.77690667348321 33.870530063497434 19.267262401745086 H 0.0 **** 0.06
27320 H 122.75382002636417 35.35072927319026 20.255837244769623 H 0.0 **** 0.06
27321 C 47.69412141252906 12.295321203541107 12.725702801811 C 0.0 **** -0.24
27322 H 48.382056816504345 12.023742808582824 13.526074425323433 H 0.0 **** 0.06
27323 H 46.7182488233545 12.53139412617709 13.1496850617537 H 0.0 **** 0.06
27324 H 47.59761838440828 11.460369950078814 12.031080369996975 H 0.0 **** 0.06
27325 H 48.08079332796453 13.165899335967538 12.196042302365527 H 0.0 **** 0.06
27326 C 120.26529041910187 96.37494380688045 77.7592405816539 C 0.0 **** -0.24
27327 H 119.69672043307428 96.48810923266686 78.68239304709502 H 0.0 **** 0.06
27328 H 119.59205796979737 96.08842015324757 76.95040187695726 H 0.0 **** 0.06
27329 H 121.02328442210518 95.60178847597254 77.89229972662254 H 0.0 **** 0.06
27330 H 120.74904713321047 97.31995460243544 77.51272743687467 H 0.0 **** 0.06
27331 C 93.60420637217965 6.932224546360338 90.76375917759219 C 0.0 **** -0.24
27332 H 93.89567411108595 6.6623248048184145 91.77940353450555 H 0.0 **** 0.06
27333 H 93.72877256205055 8.00636309615415 90.6233512161478 H 0.0 **** 0.06
27334 H 92.56066863807513 6.662744631483321 90.60138223270968 H 0.0 **** 0.06
27335 H 94.23329213094212 6.396484839424904 90.05249213079532 H 0.0 **** 0.06
27336 C 8.213563365764031 108.52216853327903 31.105751765981978 C 0.0 **** -0.24
27337 H 8.10405632027502 109.60653873433013 31.08952888921121 H 0.0 **** 0.06
27338 H 7.318605840750507 108.07393238877955 31.536773888043598 H 0.0 **** 0.06
27339 H 9.081243808182904 108.25400494767268 31.70869592598015 H 0.0 **** 0.06
27340 H 8.35159401109837 108.15575867303569 30.088112780399996 H 0.0 **** 0.06
27341 C 101.92910652633174 119.07057761043671 115.87237141416483 C 0.0 **** -0.24
27342 H 102.48464463454656 118.20801385785856 116.2408438102216 H 0.0 **** 0.06
27343 H 102.15453889454392 119.22368356501016 114.81669980170923 H 0.0 **** 0.06
27344 H 102.21626400325067 119.95666579085912 116.43806744681824 H 0.0 **** 0.06
27345 H 100.86075375595647 118.89313829202416 115.99441785980238 H 0.0 **** 0.06
27346 C 22.152364825209958 54.15839761127549 56.165361711842166 C 0.0 **** -0.24
27347 H 21.657088141631206 55.104597437205314 55.94325880598694 H 0.0 **** 0.06
27348 H 22.884346215422553 54.30908724922884 56.95949560532699 H 0.0 **** 0.06
27349 H 22.65727447494502 53.79474429726341 55.27034650152274 H 0.0 **** 0.06
27350 H 21.410636587057432 53.4280729119329 56.4867612968377 H 0.0 **** 0.06
27351 C 35.695669848500415 115.61775392770764 44.47027601524678 C 0.0 **** -0.24
27352 H 35.65129532944485 115.87539087237974 45.527984273566716 H 0.0 **** 0.06
27353 H 36.64619334990181 115.95261610730174 44.05427465437208 H 0.0 **** 0.06
27354 H 34.875105361211126 116.10577986936994 43.943210200182165 H 0.0 **** 0.06
27355 H 35.60918594145073 114.53726498391876 44.35607060118221 H 0.0 **** 0.06
27356 C 54.32693097163292 71.89414259025322 96.31513543283651 C 0.0 **** -0.24
27357 H 55.32435143944065 72.00250173535615 95.88841720732329 H 0.0 **** 0.06
27358 H 53.87017366489363 70.97727847488369 95.94151302395899 H 0.0 **** 0.06
27359 H 53.714389502222105 72.74873217890755 96.02934837549806 H 0.0 **** 0.06
27360 H 54.400748712447694 71.84753015558017 97.40224306322376 H 0.0 **** 0.06
27361 C 16.380777202965817 8.416660316201302 102.96951082060505 C 0.0 **** -0.24
27362 H 15.970086756998114 9.369473739593246 103.30459242596633 H 0.0 **** 0.06
27363 H 16.016765859209784 7.617815487432097 103.61508757978758 H 0.0 **** 0.06
27364 H 17.469195609983842 8.454987935314847 103.01560940829766 H 0.0 **** 0.06
27365 H 16.066667892717078 8.227222939859644 101.94357443135137 H 0.0 **** 0.06
27366 C 96.00596381675325 102.64280890854403 96.24195642681033 C 0.0 **** -0.24
27367 H 96.03213708137116 101.69130888536675 95.71111995643045 H 0.0 **** 0.06
27368 H 95.37867953155092 102.54838413010442 97.1284467553696 H 0.0 **** 0.06
27369 H 95.5962733726858 103.41246963588581 95.58676417496864 H 0.0 **** 0.06
27370 H 97.01724008220822 102.91953941944304 96.54024697900823 H 0.0 **** 0.06
27371 C 103.22227012144197 39.299425837589695 121.89341798126271 C 0.0 **** -0.24
27372 H 102.52197806175138 39.7397732894749 122.60350380924773 H 0.0 **** 0.06
27373 H 104.24177424292569 39.56253575100527 122.17859568977828 H 0.0 **** 0.06
27374 H 103.01492779043258 39.68271321982663 120.89379370006505 H 0.0 **** 0.06
27375 H 103.11132012472686 38.21533851535441 121.897474408702 H 0.0 **** 0.06
27376 C 90.28551833868288 69.11076583798629 33.43678048699422 C 0.0 **** -0.24
27377 H 90.821436954721 69.6130530011254 32.630701327035894 H 0.0 **** 0.06
27378 H 89.43103351086616 68.57390045938294 33.02467739738998 H 0.0 **** 0.06
27379 H 89.93822073400226 69.85028185197032 34.15709850866929 H 0.0 **** 0.06
27380 H 90.95393554709028 68.40642910578296 33.93238207210689 H 0.0 **** 0.06
27381 C 74.45169342262082 74.31575242832997 89.47055137387085 C 0.0 **** -0.24
27382 H 75.01841199566516 74.1663273270751 88.55146763935045 H 0.0 **** 0.06
27383 H 74.1519569866679 73.34879591454795 89.87446085684576 H 0.0 **** 0.06
27384 H 73.56418000002716 74.91162034888697 89.25623599072799 H 0.0 **** 0.06
27385 H 75.07236642333325 74.83861012599583 90.19817391229029 H 0.0 **** 0.06
27386 C 103.11478738734846 32.63862989702737 52.91192667842756 C 0.0 **** -0.24
27387 H 102.63866880056317 32.04905501909373 52.12815994834938 H 0.0 **** 0.06
27388 H 104.16540760455274 32.36047792740103 52.98929138191619 H 0.0 **** 0.06
27389 H 102.6161101991611 32.44762648351214 53.86214110857628 H 0.0 **** 0.06
27390 H 103.03581805472638 33.69794783385745 52.66645144633071 H 0.0 **** 0.06
27391 C 88.24367606305634 109.22037962110383 49.3088896351379 C 0.0 **** -0.24
27392 H 88.04086001167332 108.25245602141165 48.85150225679405 H 0.0 **** 0.06
27393 H 88.81039042622785 109.83969181532653 48.61271077011003 H 0.0 **** 0.06
27394 H 88.82255259714054 109.07639730154504 50.22190487486 H 0.0 **** 0.06
27395 H 87.30090121718342 109.71297334613216 49.54944063878773 H 0.0 **** 0.06
27396 C 83.38634184035486 39.18848873503822 36.21074998573198 C 0.0 **** -0.24
27397 H 84.07062746981279 39.152336361713736 37.05895747151402 H 0.0 **** 0.06
27398 H 82.44404099462385 39.640211753730824 36.52257878107116 H 0.0 **** 0.06
27399 H 83.20230294914678 38.176465270954395 35.85000089418065 H 0.0 **** 0.06
27400 H 83.8288590737657 39.783845635257904 35.412227377269545 H 0.0 **** 0.06
27401 C 50.76522787531525 82.86635789445518 66.32459434842679 C 0.0 **** -0.24
27402 H 50.11592117559866 83.01098663604532 65.46063770098195 H 0.0 **** 0.06
27403 H 50.69487804377388 83.73444757713935 66.98043574755167 H 0.0 **** 0.06
27404 H 51.79523538019964 82.74690853999053 65.98770545054995 H 0.0 **** 0.06
27405 H 50.45387838580598 81.97348021929616 66.8666235471456 H 0.0 **** 0.06
27406 C 53.158228614974206 39.58509880100516 74.85721887546242 C 0.0 **** -0.24
27407 H 53.44130950061913 40.43906553234211 74.24233701095268 H 0.0 **** 0.06
27408 H 53.82821657665596 38.750056358722645 74.6497604032012 H 0.0 **** 0.06
27409 H 52.13329222192479 39.29388524504802 74.6251330745082 H 0.0 **** 0.06
27410 H 53.229412690998316 39.85530076170804 75.91056041937325 H 0.0 **** 0.06
27411 C 45.29198412576811 121.731742429594 0.5207119803046538 C 0.0 **** -0.24
27412 H 46.25578075645646 122.20004721396269 0.72374759842549 H 0.0 **** 0.06
27413 H 44.529112027418066 122.18327450863946 1.155555025436044 H 0.0 **** 0.06
27414 H 45.35685885589466 120.66433549387344 0.7316039118151991 H 0.0 **** 0.06
27415 H 45.03026348883752 121.88041094033781 -0.5262811519834543 H 0.0 **** 0.06
27416 C 114.73850862148626 60.706128494724936 15.84306309128769 C 0.0 **** -0.24
27417 H 115.50470770063751 59.94292876089206 15.700129735094748 H 0.0 **** 0.06
27418 H 113.75247634382467 60.256195566988765 15.72336988127671 H 0.0 **** 0.06
27419 H 114.87019085756953 61.49550012217472 15.102653772664468 H 0.0 **** 0.06
27420 H 114.82796578001785 61.12739606946215 16.843633765621007 H 0.0 **** 0.06
27421 C 20.323577119435214 110.74963860015919 44.70497267232503 C 0.0 **** -0.24
27422 H 21.334042136446833 110.49393280066289 45.02360677680214 H 0.0 **** 0.06
27423 H 19.981110809733636 111.62889616875037 45.2502319129248 H 0.0 **** 0.06
27424 H 19.655712685535597 109.91260273358469 44.90855254321257 H 0.0 **** 0.06
27425 H 20.32359643367605 110.96213599019705 43.63549868466547 H 0.0 **** 0.06
27426 C 52.05029560868314 31.971613757210832 9.50038797934397 C 0.0 **** -0.24
27427 H 51.57927106246649 32.90504361642681 9.808365700394432 H 0.0 **** 0.06
27428 H 51.68666256597345 31.157105045616674 10.126720373243302 H 0.0 **** 0.06
27429 H 53.13177756645558 32.05807699397491 9.605856439761652 H 0.0 **** 0.06
27430 H 51.802443040755804 31.76751695259884 8.45810232847117 H 0.0 **** 0.06
27431 C 116.51172514165518 47.622209997441956 90.16169388806708 C 0.0 **** -0.24
27432 H 115.59135741135339 48.09618917196775 89.82242758820809 H 0.0 **** 0.06
27433 H 116.44390986659008 46.54566160564315 90.00910198809709 H 0.0 **** 0.06
27434 H 116.65770779096572 47.83096025925519 91.22207550116678 H 0.0 **** 0.06
27435 H 117.35376834394823 48.017794561625095 89.59453363166523 H 0.0 **** 0.06
27436 C 8.54252126004829 32.21130949046798 59.07054533521688 C 0.0 **** -0.24
27437 H 8.331178923754635 33.14764550705081 58.55383071074604 H 0.0 **** 0.06
27438 H 9.330863624363644 31.67542627266434 58.543398186201614 H 0.0 **** 0.06
27439 H 7.64092417323684 31.599875585306762 59.09633179937299 H 0.0 **** 0.06
27440 H 8.865849260067137 32.424683652661486 60.08943501713324 H 0.0 **** 0.06
27441 C 24.337419068643236 2.980499727891754 26.347933364763293 C 0.0 **** -0.24
27442 H 23.698280139591645 3.3520550463742325 27.14921222284523 H 0.0 **** 0.06
27443 H 23.908740469816273 3.256878124516618 25.384156213717056 H 0.0 **** 0.06
27444 H 24.41005669262693 1.8946476371502854 26.4153036987123 H 0.0 **** 0.06
27445 H 25.331240574975887 3.418125271474736 26.443324216722445 H 0.0 **** 0.06
27446 C 7.1313680500092005 110.54421835012161 15.648817546215739 C 0.0 **** -0.24
27447 H 6.662453434763748 111.43047131748867 15.221251796419288 H 0.0 **** 0.06
27448 H 8.157227449063384 110.46595954738964 15.287679338939412 H 0.0 **** 0.06
27449 H 6.57129257441828 109.65776221607464 15.35170868922884 H 0.0 **** 0.06
27450 H 7.13452622382448 110.62473311300505 16.73596662575868 H 0.0 **** 0.06
27451 C 2.6419000569187006 76.94403413093642 1.9718122188694451 C 0.0 **** -0.24
27452 H 3.685438429489807 76.81406618788128 2.258091262206676 H 0.0 **** 0.06
27453 H 2.0424007501315486 76.14802045232435 2.413545752894578 H 0.0 **** 0.06
27454 H 2.5556031798409435 76.90620399625482 0.8859142336446837 H 0.0 **** 0.06
27455 H 2.2856007640638722 77.90998460368428 2.331228778696925 H 0.0 **** 0.06
27456 C 98.6150646055841 35.94033762214724 45.27601351303368 C 0.0 **** -0.24
27457 H 98.86960761032466 36.70634470303776 44.54393859532884 H 0.0 **** 0.06
27458 H 99.52956169043163 35.53835327500542 45.714395172417575 H 0.0 **** 0.06
27459 H 98.0637365229895 35.137920124975494 44.786539125412204 H 0.0 **** 0.06
27460 H 97.99832984836696 36.378173357463766 46.06135665712423 H 0.0 **** 0.06
27461 C 94.36681994740489 53.94312898933134 50.14411273989012 C 0.0 **** -0.24
27462 H 95.3570120520714 53.79243199227216 49.715144594445576 H 0.0 **** 0.06
27463 H 94.2188654925268 55.002761589732216 50.352199100927805 H 0.0 **** 0.06
27464 H 94.28249407833135 53.3756359798038 51.07139348896564 H 0.0 **** 0.06
27465 H 93.6095214226507 53.60056634530977 49.438884059602145 H 0.0 **** 0.06
27466 C 69.53017231095117 34.668990620095144 112.15364671515526 C 0.0 **** -0.24
27467 H 69.66867177464292 34.85074082326062 111.08821045240691 H 0.0 **** 0.06
27468 H 69.77164954461261 35.574670128095505 112.7113573589428 H 0.0 **** 0.06
27469 H 70.18756255309393 33.85968890075384 112.47278704607696 H 0.0 **** 0.06
27470 H 68.4927712213098 34.39082214065084 112.34323062631842 H 0.0 **** 0.06
27471 C 48.180395887268986 42.37934456057221 33.260935306461036 C 0.0 **** -0.24
27472 H 48.235829805065634 43.331246043141135 33.788185063154685 H 0.0 **** 0.06
27473 H 48.54555180168964 41.58265690358493 33.9099520282698 H 0.0 **** 0.06
27474 H 48.79432536492513 42.426073031296966 32.36087485710165 H 0.0 **** 0.06
27475 H 47.145921136869475 42.17645571942626 32.983679432297365 H 0.0 **** 0.06
27476 C 95.87403540754971 91.05544225007498 38.23585638307631 C 0.0 **** -0.24
27477 H 96.20721889227733 90.72312425203313 37.25301449121056 H 0.0 **** 0.06
27478 H 96.72515833065289 91.44320262898282 38.79590940094693 H 0.0 **** 0.06
27479 H 95.43617318343523 90.21572245370345 38.77398643614804 H 0.0 **** 0.06
27480 H 95.12718629619616 91.8421051920293 38.11905037426214 H 0.0 **** 0.06
27481 C 111.84238583375188 30.89181268041623 104.17675842502354 C 0.0 **** -0.24
27482 H 111.61474462389481 30.606131642716953 105.20433012450712 H 0.0 **** 0.06
27483 H 111.26015192943245 31.77456483270344 103.90794593584457 H 0.0 **** 0.06
27484 H 111.58816642822988 30.070859193236572 103.50703495954005 H 0.0 **** 0.06
27485 H 112.90538912772755 31.11715488316444 104.0893592754723 H 0.0 **** 0.06
27486 C 68.81765649250474 25.12298781276308 11.212878757474869 C 0.0 **** -0.24
27487 H 67.80035591519103 24.73390450192663 11.249680862466676 H 0.0 **** 0.06
27488 H 68.90120749711099 25.844899245620773 10.399500059305467 H 0.0 **** 0.06
27489 H 69.51491854499687 24.30211449130902 11.042528010754495 H 0.0 **** 0.06
27490 H 69.05467509992297 25.610912061031463 12.157637322299422 H 0.0 **** 0.06
27491 C 20.25850689101207 51.69993686713019 5.618061741714399 C 0.0 **** -0.24
27492 H 20.82245664099812 51.506647192053066 6.530358549621781 H 0.0 **** 0.06
27493 H 19.331659513249 51.12468650900627 5.635803988165549 H 0.0 **** 0.06
27494 H 20.853095186797695 51.40416265301779 4.753409725750444 H 0.0 **** 0.06
27495 H 20.025491705194945 52.762459182331625 5.552487887903283 H 0.0 **** 0.06
27496 C 18.70656749221314 8.249920777510255 82.21189035766896 C 0.0 **** -0.24
27497 H 19.596062051781416 8.808915659673858 81.91867211060816 H 0.0 **** 0.06
27498 H 17.823563566598295 8.876826120780947 82.07920055581738 H 0.0 **** 0.06
27499 H 18.790896787714786 7.95693141535628 83.25780787164778 H 0.0 **** 0.06
27500 H 18.61737197101297 7.3591660381908355 81.58995397352102 H 0.0 **** 0.06
27501 C 123.7638138266927 27.08417998014326 89.0667205518713 C 0.0 **** -0.24
27502 H 123.14567864210738 26.77004046879361 88.22509710768816 H 0.0 **** 0.06
27503 H 124.42050714475509 27.89604644924671 88.75072127427319 H 0.0 **** 0.06
27504 H 124.36434278175835 26.242089797734025 89.41000582494792 H 0.0 **** 0.06
27505 H 123.12400983057967 27.429349008974924 89.87825849958847 H 0.0 **** 0.06
27506 C 11.927464253855305 45.2377568328734 112.03332560414518 C 0.0 **** -0.24
27507 H 11.35995808817404 46.16141723750633 112.14340227925429 H 0.0 **** 0.06
27508 H 11.921331100413482 44.92891826262701 110.98805490999426 H 0.0 **** 0.06
27509 H 11.474315224775637 44.45834547779418 112.64604708426126 H 0.0 **** 0.06
27510 H 12.955289292621359 45.40226964932572 112.35801618519814 H 0.0 **** 0.06
27511 C 73.17082629330633 118.5859919128539 107.22830163022746 C 0.0 **** -0.24
27512 H 73.19751195786347 118.58010801823832 106.1389422188264 H 0.0 **** 0.06
27513 H 74.00912277470701 119.17101165196999 107.60849065936571 H 0.0 **** 0.06
27514 H 73.24395050165003 117.56313423026566 107.59886709186162 H 0.0 **** 0.06
27515 H 72.23481850545164 119.02919091550166 107.565756340565 H 0.0 **** 0.06
27516 C 108.38735078065949 102.70611475704031 84.63743131252892 C 0.0 **** -0.24
27517 H 107.30658519843294 102.70533456586693 84.785778741576 H 0.0 **** 0.06
27518 H 108.607624989183 102.74260709438352 83.57037540553449 H 0.0 **** 0.06
27519 H 108.81201286317236 101.79785557664933 85.06578644472143 H 0.0 **** 0.06
27520 H 108.81983451344726 103.5772881057872 85.12874433423218 H 0.0 **** 0.06
27521 C 40.67119443826502 114.39053097377933 110.1264799961667 C 0.0 **** -0.24
27522 H 40.10759347581457 113.54217005686392 109.73826302673679 H 0.0 **** 0.06
27523 H 41.66690538934428 114.06080154186441 110.42242575397647 H 0.0 **** 0.06
27524 H 40.152807024168865 114.8050899258036 110.99211512029629 H 0.0 **** 0.06
27525 H 40.75532860851723 115.15377657422167 109.35368621139706 H 0.0 **** 0.06
27526 C 54.99055946939778 98.2153729903173 2.957499497079638 C 0.0 **** -0.24
27527 H 56.023253660453705 97.86597951898965 2.9392880200936986 H 0.0 **** 0.06
27528 H 54.970132487896166 99.27385042806786 3.216198044777059 H 0.0 **** 0.06
27529 H 54.428214923314684 97.6489058160484 3.6994073276559902 H 0.0 **** 0.06
27530 H 54.54299143349661 98.07265786993364 1.9744364773086573 H 0.0 **** 0.06
27531 C 86.68117892642678 38.05260691039455 58.12675841893824 C 0.0 **** -0.24
27532 H 86.9087582708799 38.24094209517043 57.078133060888604 H 0.0 **** 0.06
27533 H 86.7875093786092 36.98831723523973 58.33607878333882 H 0.0 **** 0.06
27534 H 85.6592870521769 38.36528581800556 58.338691293141935 H 0.0 **** 0.06
27535 H 87.37131815866613 38.61619356475182 58.75463072485738 H 0.0 **** 0.06
27536 C 103.03518818123376 6.55891423802877 43.64791951826905 C 0.0 **** -0.24
27537 H 103.88645076087704 6.05360148026109 43.1912568776751 H 0.0 **** 0.06
27538 H 102.93033602463359 6.229975360430707 44.68192240064488 H 0.0 **** 0.06
27539 H 102.12891172408972 6.314346555897391 43.09475653367571 H 0.0 **** 0.06
27540 H 103.19717363652374 7.636637660699002 43.62318783336244 H 0.0 **** 0.06
27541 C 73.89697632422934 122.78646749325264 104.18299501139555 C 0.0 **** -0.24
27542 H 73.37628196374419 123.5742357159188 103.63778646136151 H 0.0 **** 0.06
27543 H 73.17043890701271 122.16558362678384 104.70626192451242 H 0.0 **** 0.06
27544 H 74.57933538086726 123.23560771772978 104.90500326086078 H 0.0 **** 0.06
27545 H 74.46138666979802 122.17305258070576 103.48120318077353 H 0.0 **** 0.06
27546 C 26.144664368113325 15.597585264264438 32.4851320276411 C 0.0 **** -0.24
27547 H 26.381766050552557 16.156321857000364 31.580239286673816 H 0.0 **** 0.06
27548 H 26.742603745272476 14.686096493939317 32.51658828058601 H 0.0 **** 0.06
27549 H 25.085603587348146 15.338077860170927 32.48417149060526 H 0.0 **** 0.06
27550 H 26.367459905009838 16.208820008024418 33.358857307974574 H 0.0 **** 0.06
27551 C 123.47812959335832 113.13037019577152 71.34853798825176 C 0.0 **** -0.24
27552 H 124.39444843528734 112.64752541274032 71.00908195646122 H 0.0 **** 0.06
27553 H 122.85968726502948 113.38111506598237 70.48645572618376 H 0.0 **** 0.06
27554 H 123.72814820694646 114.04014218181179 71.89406462993574 H 0.0 **** 0.06
27555 H 122.9314405458942 112.4511073499525 72.00313008557416 H 0.0 **** 0.06
27556 C 119.6209705645646 59.292063351888345 72.98999678256456 C 0.0 **** -0.24
27557 H 120.70498828173903 59.17725670351044 73.0047869951139 H 0.0 **** 0.06
27558 H 119.21082542473548 58.75078840552932 72.13743646133682 H 0.0 **** 0.06
27559 H 119.37018349620027 60.349800970468905 72.90458758133803 H 0.0 **** 0.06
27560 H 119.20131434966123 58.89262898337785 73.9126237327001 H 0.0 **** 0.06
27561 C 104.02719094528513 97.92210216547517 20.643092442176368 C 0.0 **** -0.24
27562 H 104.55724034357976 97.03512882654684 20.293169955564053 H 0.0 **** 0.06
27563 H 102.95813610256786 97.79460077530291 20.47612302147101 H 0.0 **** 0.06
27564 H 104.3801591176466 98.79584466373478 20.094678128964603 H 0.0 **** 0.06
27565 H 104.21601806645035 98.05990029148103 21.707618481703406 H 0.0 **** 0.06
27566 C 49.70972025434446 89.43282253588774 99.71327121400421 C 0.0 **** -0.24
27567 H 49.474537759694925 88.3818618679853 99.54064254403053 H 0.0 **** 0.06
27568 H 48.950596893581775 89.87185881186338 100.3618995100143 H 0.0 **** 0.06
27569 H 49.72526674704906 89.9624655571225 98.76050350537838 H 0.0 **** 0.06
27570 H 50.68647191524602 89.51251479143954 100.19055524824961 H 0.0 **** 0.06
27571 C 117.54647550073628 97.07435681379616 49.46518447368035 C 0.0 **** -0.24
27572 H 117.33428212395715 97.2742959582531 48.41544024034491 H 0.0 **** 0.06
27573 H 118.60489021586893 97.249849461054 49.66151941251326 H 0.0 **** 0.06
27574 H 117.3013142701319 96.0370717918974 49.69400203974291 H 0.0 **** 0.06
27575 H 116.94585386593798 97.73553724759284 50.089180265783995 H 0.0 **** 0.06
27576 C 100.98112517306166 11.226581491646016 61.45070197026371 C 0.0 **** -0.24
27577 H 101.32240488821134 11.168727961109965 60.41707929392328 H 0.0 **** 0.06
27578 H 99.97476616354271 10.813024925916835 61.523854369651474 H 0.0 **** 0.06
27579 H 100.97051407709301 12.268143136304985 61.77174160673047 H 0.0 **** 0.06
27580 H 101.65593031610956 10.655917337106871 62.08790687628243 H 0.0 **** 0.06
27581 C 50.73467385210451 88.69875737194803 65.80677386326644 C 0.0 **** -0.24
27582 H 51.67941380584 89.068338303281 65.40947548504687 H 0.0 **** 0.06
27583 H 50.68882036051325 87.61659495095586 65.68697975572461 H 0.0 **** 0.06
27584 H 49.90855767780972 89.15996634041176 65.26620099730484 H 0.0 **** 0.06
27585 H 50.66301137017704 88.9508694396934 66.8649145508575 H 0.0 **** 0.06
27586 C 85.62706034813903 6.9955594762801745 54.68502210071017 C 0.0 **** -0.24
27587 H 85.05674138043614 7.5467181203968074 53.93806957822494 H 0.0 **** 0.06
27588 H 84.99118267699657 6.234863510447465 55.13938320582844 H 0.0 **** 0.06
27589 H 85.97786965976267 7.68308365103298 55.455196812851 H 0.0 **** 0.06
27590 H 86.48261980442093 6.51635244443705 54.20813281063067 H 0.0 **** 0.06
27591 C 114.65766280115544 106.06407772925706 25.731602045499727 C 0.0 **** -0.24
27592 H 115.21523265867373 106.41169378871399 26.600476926690078 H 0.0 **** 0.06
27593 H 113.95937868868295 106.83870202053441 25.414199732977607 H 0.0 **** 0.06
27594 H 114.10622386347175 105.16091870422511 25.99225998277754 H 0.0 **** 0.06
27595 H 115.35098806255878 105.84430627300097 24.919084135533552 H 0.0 **** 0.06
27596 C 22.18276563570626 94.22881518901494 10.966559112589323 C 0.0 **** -0.24
27597 H 23.0939396516074 94.23902763019538 10.366943884952008 H 0.0 **** 0.06
27598 H 21.936447829439857 95.24684537047295 11.269372305738955 H 0.0 **** 0.06
27599 H 22.339469326245677 93.6143101301655 11.853219253655098 H 0.0 **** 0.06
27600 H 21.365291529557368 93.81558919141463 10.376914310541224 H 0.0 **** 0.06
27601 C 71.74466510045264 37.43790081031826 3.1120985321372245 C 0.0 **** -0.24
27602 H 72.37761263998829 36.733167095518816 2.5724833641860982 H 0.0 **** 0.06
27603 H 71.58106642640794 38.322678293330036 2.4959321192523305 H 0.0 **** 0.06
27604 H 72.23592192643727 37.727680888934046 4.041985646549676 H 0.0 **** 0.06
27605 H 70.78772932670662 36.96854325675994 3.3374317275244323 H 0.0 **** 0.06
27606 C 104.78727028685117 40.10427151212639 72.34338874049615 C 0.0 **** -0.24
27607 H 105.38724071538945 39.476969453286074 73.00335265494542 H 0.0 **** 0.06
27608 H 105.35062292934123 40.31657696496484 71.43397465687289 H 0.0 **** 0.06
27609 H 104.54678843969435 41.03876944342187 72.85011528731451 H 0.0 **** 0.06
27610 H 103.86580336801242 39.582025444821966 72.08687276617164 H 0.0 **** 0.06
27611 C 92.27389209678856 83.16358335524905 100.73692072141986 C 0.0 **** -0.24
27612 H 93.31479934234875 83.36636383940328 100.99124718901156 H 0.0 **** 0.06
27613 H 91.80794178015381 82.59658746153366 101.54303652132434 H 0.0 **** 0.06
27614 H 92.23169952026541 82.58606983602925 99.81377577272771 H 0.0 **** 0.06
27615 H 91.74311745436219 84.10576027649142 100.60054025870264 H 0.0 **** 0.06
27616 C 20.148127323193876 18.529537904507436 27.432535287668088 C 0.0 **** -0.24
27617 H 20.427754043049276 18.88234982124203 26.43924710207915 H 0.0 **** 0.06
27618 H 19.734732092483114 17.523532859760223 27.357950022331522 H 0.0 **** 0.06
27619 H 19.401155659145672 19.200116033346887 27.85714805768697 H 0.0 **** 0.06
27620 H 21.02951024796846 18.514437417160934 28.073478974698332 H 0.0 **** 0.06
27621 C 38.11442428135527 87.02650146990402 38.06093000494457 C 0.0 **** -0.24
27622 H 37.92619122729349 88.06589816883847 38.33073095328359 H 0.0 **** 0.06
27623 H 37.44428894749689 86.73402764675797 37.2519909141987 H 0.0 **** 0.06
27624 H 37.93958096717898 86.38902058810419 38.92680908000011 H 0.0 **** 0.06
27625 H 39.14891052189785 86.91820169961335 37.73274992501615 H 0.0 **** 0.06
27626 C 72.50129410425798 68.93650508310992 123.5519996992406 C 0.0 **** -0.24
27627 H 72.56696878254186 68.37839413754915 124.48494536406871 H 0.0 **** 0.06
27628 H 73.05183291923566 69.87254392840924 123.64844670590315 H 0.0 **** 0.06
27629 H 71.45645537723651 69.15142121223124 123.32963118231373 H 0.0 **** 0.06
27630 H 72.93050098460941 68.34405883568576 122.74310373494647 H 0.0 **** 0.06
27631 C 74.25834993373373 40.227494113501706 44.872670459204414 C 0.0 **** -0.24
27632 H 73.25570643803522 39.935649202310174 44.55936181954621 H 0.0 **** 0.06
27633 H 74.39189107872703 41.297743879690756 44.71047925560086 H 0.0 **** 0.06
27634 H 74.9963095906044 39.67601588969592 44.2886549535188 H 0.0 **** 0.06
27635 H 74.38864968449029 40.00058749559403 45.93105039911384 H 0.0 **** 0.06
27636 C 8.060225370089626 30.574243303340495 41.829340847673905 C 0.0 **** -0.24
27637 H 7.187850860718214 30.54200066463855 41.177411572096986 H 0.0 **** 0.06
27638 H 8.291729710944907 31.610554942340485 42.077194999349956 H 0.0 **** 0.06
27639 H 8.9115335409941 30.12318426139018 41.31973037475453 H 0.0 **** 0.06
27640 H 7.85005638172305 30.019973720933933 42.74418452029374 H 0.0 **** 0.06
27641 C 45.91751171838568 57.61281097428409 55.534672108010554 C 0.0 **** -0.24
27642 H 45.954462817482366 58.15810620342825 54.59122445491846 H 0.0 **** 0.06
27643 H 45.589255062080966 56.58968404388034 55.34913611372046 H 0.0 **** 0.06
27644 H 45.21562259622039 58.10345151712758 56.20960045086623 H 0.0 **** 0.06
27645 H 46.909357944658325 57.60141869757686 55.98725250917484 H 0.0 **** 0.06
27646 C 5.072012086417168 63.813661656076235 21.67514622301831 C 0.0 **** -0.24
27647 H 6.143821603577283 63.96242733866403 21.539139210305628 H 0.0 **** 0.06
27648 H 4.536993020490559 64.22253850375381 20.817929775861344 H 0.0 **** 0.06
27649 H 4.747324571096602 64.32372033050206 22.582623454919933 H 0.0 **** 0.06
27650 H 4.861254337775616 62.747813421064095 21.7617626787237 H 0.0 **** 0.06
27651 C 107.15814924493634 18.365317488114094 69.92734784751426 C 0.0 **** -0.24
27652 H 108.22664104487401 18.394374777350272 70.13818331366056 H 0.0 **** 0.06
27653 H 106.99175219901315 18.55403633598839 68.86711349184247 H 0.0 **** 0.06
27654 H 106.65058323247594 19.130079521963545 70.5162192624918 H 0.0 **** 0.06
27655 H 106.76210355632166 17.38448648992694 70.18982080795357 H 0.0 **** 0.06
27656 C 50.895998813730984 54.08893232638137 66.64400165362103 C 0.0 **** -0.24
27657 H 50.18680057743907 53.26185465624938 66.67467882224811 H 0.0 **** 0.06
27658 H 51.740381930579076 53.86732103337965 67.29699730066442 H 0.0 **** 0.06
27659 H 50.40468313293971 55.00137076283873 66.98174520035799 H 0.0 **** 0.06
27660 H 51.25168677758748 54.22428641712544 65.62260405779355 H 0.0 **** 0.06
27661 C 74.52052335455829 42.05279644579787 34.14228847324034 C 0.0 **** -0.24
27662 H 74.04430037124371 42.46393571811609 35.03187142418618 H 0.0 **** 0.06
27663 H 74.036350770681 42.45632110799738 33.25243538635478 H 0.0 **** 0.06
27664 H 74.42530494641221 40.96654173560273 34.14728013711628 H 0.0 **** 0.06
27665 H 75.57589177401803 42.32539864148515 34.136609428138804 H 0.0 **** 0.06
27666 C 50.808881873414016 22.537746587723674 43.92215207907333 C 0.0 **** -0.24
27667 H 50.282990898566474 21.7081490913245 44.395178936116224 H 0.0 **** 0.06
27668 H 50.73575547233051 22.4429420931449 42.83859988309757 H 0.0 **** 0.06
27669 H 51.858180850600064 22.518881484809647 44.2190637638526 H 0.0 **** 0.06
27670 H 50.35855614557902 23.479030084798374 44.2360179454505 H 0.0 **** 0.06
27671 C 107.79774314552989 26.401653047330797 2.0512484392199184 C 0.0 **** -0.24
27672 H 108.04787004771461 25.538548390514194 1.4354501628691025 H 0.0 **** 0.06
27673 H 106.72448199493644 26.411847540681464 2.242599710826269 H 0.0 **** 0.06
27674 H 108.0831369631212 27.315634245634413 1.5302393667133884 H 0.0 **** 0.06
27675 H 108.33483340695008 26.340143874759264 2.9987986948776637 H 0.0 **** 0.06
27676 C 59.674362551787354 93.05678679975887 113.70795495653823 C 0.0 **** -0.24
27677 H 59.564910286763094 91.98006064327438 113.57650641433469 H 0.0 **** 0.06
27678 H 59.30725228373389 93.57000280934224 112.81912927656627 H 0.0 **** 0.06
27679 H 60.72552491350342 93.29894882809407 113.8600367567025 H 0.0 **** 0.06
27680 H 59.09811807769802 93.37665906142058 114.5764898049755 H 0.0 **** 0.06
27681 C 27.653687521413445 116.26517571516368 120.63543672774759 C 0.0 **** -0.24
27682 H 27.40529938108321 115.22697703555176 120.41649265360138 H 0.0 **** 0.06
27683 H 28.156697955254316 116.70821992486836 119.77625630060473 H 0.0 **** 0.06
27684 H 28.31236163287187 116.3053498258873 121.50333257132436 H 0.0 **** 0.06
27685 H 26.73917053656976 116.81996447252573 120.84778052026743 H 0.0 **** 0.06
27686 C 89.76847964064014 86.03228206519668 43.36451071943662 C 0.0 **** -0.24
27687 H 90.47989207989102 85.2088500769118 43.42165765357964 H 0.0 **** 0.06
27688 H 89.23003478897353 85.98172574364497 42.416716410847954 H 0.0 **** 0.06
27689 H 90.30407417809629 86.98013913606644 43.42757603808019 H 0.0 **** 0.06
27690 H 89.05999130485111 85.95848879925433 44.18909455272342 H 0.0 **** 0.06
27691 C 119.3961128473913 11.205592623108856 39.420696112394694 C 0.0 **** -0.24
27692 H 120.02138427677707 12.066778886110413 39.18846243003108 H 0.0 **** 0.06
27693 H 118.91743057467639 10.847847675571725 38.508372916526696 H 0.0 **** 0.06
27694 H 118.63195652719784 11.495754221672605 40.14149709018656 H 0.0 **** 0.06
27695 H 120.01217723650217 10.411955040407047 39.8427964962176 H 0.0 **** 0.06
27696 C 62.53594847044275 79.17101587927601 14.448611760231554 C 0.0 **** -0.24
27697 H 61.54997224828328 78.99637352982849 14.017295545259412 H 0.0 **** 0.06
27698 H 62.673651741649095 78.52033801548458 15.31217521061589 H 0.0 **** 0.06
27699 H 62.614894251710595 80.21247875185003 14.761736974529537 H 0.0 **** 0.06
27700 H 63.30206607664478 78.95511281112267 13.704040489762427 H 0.0 **** 0.06
27701 C 122.89384354032394 17.98795201568481 105.38848384945072 C 0.0 **** -0.24
27702 H 123.31958087978082 18.980285108292946 105.23979471980527 H 0.0 **** 0.06
27703 H 123.62829967906073 17.347252546676273 105.87619489162347 H 0.0 **** 0.06
27704 H 122.62232153235794 17.560595539087814 104.42300781682428 H 0.0 **** 0.06
27705 H 122.0052243097614 18.064141507675544 106.0158209036872 H 0.0 **** 0.06
27706 C 15.660141850026776 91.79281098963736 32.92658859058295 C 0.0 **** -0.24
27707 H 15.661768393295802 92.87149384525497 33.081450878922624 H 0.0 **** 0.06
27708 H 16.68265846808262 91.44531652485787 32.77401353167869 H 0.0 **** 0.06
27709 H 15.060880248259224 91.55313000914754 32.04788710648765 H 0.0 **** 0.06
27710 H 15.235351512750213 91.3009830393417 33.80079169152643 H 0.0 **** 0.06
27711 C 79.82383834537839 101.7505483235762 62.551493599587246 C 0.0 **** -0.24
27712 H 79.88132707258359 102.83794086335934 62.511666781510556 H 0.0 **** 0.06
27713 H 79.2738224292359 101.38434677779378 61.684908001083755 H 0.0 **** 0.06
27714 H 79.30993605170417 101.44689888466002 63.46385657020939 H 0.0 **** 0.06
27715 H 80.83060973629108 101.33359046800672 62.546279555704004 H 0.0 **** 0.06
27716 C 32.147886795086606 96.63634209219911 80.2409101710017 C 0.0 **** -0.24
27717 H 31.38274516047295 97.28901559215659 80.66123895708165 H 0.0 **** 0.06
27718 H 31.67251024314274 95.77387770857516 79.77381165582307 H 0.0 **** 0.06
27719 H 32.81435630492075 96.29989096189689 81.03461521447076 H 0.0 **** 0.06
27720 H 32.7212175510418 97.18435774234541 79.49244543640731 H 0.0 **** 0.06
27721 C 20.62313401276549 38.83472278791575 32.89314628664269 C 0.0 **** -0.24
27722 H 20.28473404933908 37.862294473810806 32.535889617591664 H 0.0 **** 0.06
27723 H 20.334467432157737 38.95895871348671 33.936971348377014 H 0.0 **** 0.06
27724 H 20.167059080751017 39.6212453489741 32.29285005636356 H 0.0 **** 0.06
27725 H 21.70916243730113 38.89477191868215 32.80667547764125 H 0.0 **** 0.06
27726 C 73.47107767351952 118.55460168822847 91.30855627734616 C 0.0 **** -0.24
27727 H 74.35151144185333 118.67954567661948 90.6779192133136 H 0.0 **** 0.06
27728 H 73.77684630813681 118.52336650379786 92.35532880518016 H 0.0 **** 0.06
27729 H 72.96660066857544 117.62450993782286 91.04824693658867 H 0.0 **** 0.06
27730 H 72.7919440168495 119.39277657965832 91.15299912688567 H 0.0 **** 0.06
27731 C 68.84052238880508 69.71583937046546 32.80319718519661 C 0.0 **** -0.24
27732 H 67.83341153557481 69.6061752269415 33.205075520058074 H 0.0 **** 0.06
27733 H 69.47424422917251 70.20883148975634 33.541501454528145 H 0.0 **** 0.06
27734 H 68.80561054656866 70.31655852411467 31.89502192545632 H 0.0 **** 0.06
27735 H 69.24888298548208 68.73206415487394 32.572150334075104 H 0.0 **** 0.06
27736 C 60.757201956555846 99.51369422231082 22.845590391445995 C 0.0 **** -0.24
27737 H 60.89615033631998 98.43486215116678 22.91940397817592 H 0.0 **** 0.06
27738 H 61.72815214136628 99.99961067937824 22.743102782373313 H 0.0 **** 0.06
27739 H 60.26027752533966 99.87889985421086 23.74423417553092 H 0.0 **** 0.06
27740 H 60.14311459856388 99.74131651814108 21.97344040866861 H 0.0 **** 0.06
27741 C 64.33289424903185 96.69236002683857 43.574645813651074 C 0.0 **** -0.24
27742 H 64.11990675641331 96.00112347232432 42.75907664265782 H 0.0 **** 0.06
27743 H 63.78557667828969 97.62158242320471 43.41563973776189 H 0.0 **** 0.06
27744 H 65.40285018564737 96.90121068881172 43.60314954293466 H 0.0 **** 0.06
27745 H 64.02517262637448 96.2454943666037 44.51920820442382 H 0.0 **** 0.06
27746 C 76.53602477420363 123.64656512160312 34.24395861593007 C 0.0 **** -0.24
27747 H 76.62932475753111 123.9036869605282 35.29913499269901 H 0.0 **** 0.06
27748 H 75.5684433527372 123.17514725868924 34.070438810612416 H 0.0 **** 0.06
27749 H 77.3319152078494 122.95513979433403 33.96778091141772 H 0.0 **** 0.06
27750 H 76.61350164198227 124.55049231368945 33.64163349242841 H 0.0 **** 0.06
27751 C 58.90678906384174 72.791438035085 84.78121080240649 C 0.0 **** -0.24
27752 H 59.83975349266538 73.35026530235238 84.70749398451852 H 0.0 **** 0.06
27753 H 58.62591513228102 72.69175743752614 85.83050409478221 H 0.0 **** 0.06
27754 H 59.04159524101996 71.80170643795672 84.34532050891306 H 0.0 **** 0.06
27755 H 58.121382919733335 73.32196616932796 84.2431905631822 H 0.0 **** 0.06
27756 C 89.55709286840522 100.31370253797746 45.45822862366762 C 0.0 **** -0.24
27757 H 89.19318752386508 101.174794275372 46.01940120459852 H 0.0 **** 0.06
27758 H 89.20545919429279 99.3972161853589 45.93130810321645 H 0.0 **** 0.06
27759 H 90.64639618148061 100.32359782896049 45.44648070837505 H 0.0 **** 0.06
27760 H 89.18171173381529 100.36254915738903 44.43529763700249 H 0.0 **** 0.06
27761 C 76.76231140533777 94.85064200615494 0.9389055381333833 C 0.0 **** -0.24
27762 H 77.04118339646382 95.90045685335654 1.0234564027242072 H 0.0 **** 0.06
27763 H 77.09456462491862 94.31360008651336 1.8278051539913918 H 0.0 **** 0.06
27764 H 77.2343244120438 94.4189083370969 0.056146518692173686 H 0.0 **** 0.06
27765 H 75.67956042480976 94.76799821241644 0.8487391248772269 H 0.0 **** 0.06
27766 C 16.20843955551743 66.94387019177942 81.4389481436879 C 0.0 **** -0.24
27767 H 15.47759832402022 67.54130792061427 81.98491152802396 H 0.0 **** 0.06
27768 H 15.727979949142593 66.48363070376712 80.57549930738077 H 0.0 **** 0.06
27769 H 16.603367583604324 66.16627306186034 82.09411175511528 H 0.0 **** 0.06
27770 H 17.023394859850328 67.58432751967 81.10326687805528 H 0.0 **** 0.06
27771 C 59.676879142169014 51.695894778134885 39.29929028801939 C 0.0 **** -0.24
27772 H 60.35566935101207 52.54496533797925 39.2308165651738 H 0.0 **** 0.06
27773 H 60.248471499662514 50.76848525819372 39.250387067513316 H 0.0 **** 0.06
27774 H 58.966956823178535 51.73001786324281 38.472269927014466 H 0.0 **** 0.06
27775 H 59.13476401337634 51.738160068975276 40.244894662327134 H 0.0 **** 0.06
27776 C 45.59791108725207 52.509501750907845 123.5026008690451 C 0.0 **** -0.24
27777 H 45.60282142613319 52.96281585046319 124.4940517975885 H 0.0 **** 0.06
27778 H 46.50930502069973 52.78601547126539 122.97170915432349 H 0.0 **** 0.06
27779 H 44.73012606910629 52.864147674172614 122.9452569796195 H 0.0 **** 0.06
27780 H 45.54828161819749 51.42486963146993 123.60024719837675 H 0.0 **** 0.06
27781 C 85.86491117478913 97.60126853507637 91.70559543166371 C 0.0 **** -0.24
27782 H 86.42591182053215 98.53322604868455 91.64014968519683 H 0.0 **** 0.06
27783 H 84.9456656692501 97.77012325129019 92.26612506673484 H 0.0 **** 0.06
27784 H 86.46785319974764 96.84954559258941 92.2135158578102 H 0.0 **** 0.06
27785 H 85.62100187163101 97.2535855617829 90.70195730688624 H 0.0 **** 0.06
27786 C 122.20711336847202 80.3664457001981 11.443249731995024 C 0.0 **** -0.24
27787 H 122.18824383578259 81.33239114979993 10.93821601463003 H 0.0 **** 0.06
27788 H 121.2621988583884 80.21202607344131 11.965756135212303 H 0.0 **** 0.06
27789 H 123.02689879111811 80.34764612908593 12.161338265075983 H 0.0 **** 0.06
27790 H 122.35005231265856 79.57443821290848 10.70828898939294 H 0.0 **** 0.06
27791 C 66.26889057810847 30.0959793487352 103.78762777954033 C 0.0 **** -0.24
27792 H 67.20011008928435 30.2383917241294 103.2389906834181 H 0.0 **** 0.06
27793 H 66.4888282645268 29.946094911712947 104.84438117930556 H 0.0 **** 0.06
27794 H 65.74604440549737 29.223161028966643 103.39737820059601 H 0.0 **** 0.06
27795 H 65.6399212335467 30.978916981335857 103.66851239195347 H 0.0 **** 0.06
27796 C 58.193071774728 83.12236433333123 46.43494228078444 C 0.0 **** -0.24
27797 H 57.654714241502234 83.1544892446035 45.48708948260747 H 0.0 **** 0.06
27798 H 59.022016093631734 82.41854475412617 46.35738555414002 H 0.0 **** 0.06
27799 H 57.51678496605717 82.80244490678228 47.22670761198202 H 0.0 **** 0.06
27800 H 58.58050779279439 84.11521938523771 46.66568009472185 H 0.0 **** 0.06
27801 C 1.8135474600260864 49.28009056639554 99.65137667472096 C 0.0 **** -0.24
27802 H 0.7417744232631378 49.27743639140971 99.45273069961212 H 0.0 **** 0.06
27803 H 2.3579517888869646 49.282587782787175 98.70764613102948 H 0.0 **** 0.06
27804 H 2.0790280942652544 48.39034749621405 100.22226546025443 H 0.0 **** 0.06
27805 H 2.0740623902070467 50.169395447153875 100.22480363400814 H 0.0 **** 0.06
27806 C 69.06899596028939 62.25144810607161 48.10888811905924 C 0.0 **** -0.24
27807 H 69.48416956318357 62.11419778633679 47.111592870376235 H 0.0 **** 0.06
27808 H 68.02682346834061 62.560124312607655 48.03026130458572 H 0.0 **** 0.06
27809 H 69.63659791237393 63.0192970318074 48.63566494111197 H 0.0 **** 0.06
27810 H 69.13004346229275 61.31277060989966 48.660466327660465 H 0.0 **** 0.06
27811 C 2.5925258997756657 60.63349637267126 20.574971088118396 C 0.0 **** -0.24
27812 H 2.5464137793723864 61.5279185147581 21.196144497287705 H 0.0 **** 0.06
27813 H 1.5863563701888665 60.23686630190045 20.43669885739098 H 0.0 **** 0.06
27814 H 3.2147529277958427 59.883883890750624 21.06280743797003 H 0.0 **** 0.06
27815 H 3.019579929862658 60.88662865340363 19.604758950137533 H 0.0 **** 0.06
27816 C 57.08423780344796 1.6625988828923255 47.584661809837456 C 0.0 **** -0.24
27817 H 57.38289259726865 1.1348533888069596 46.67822770818606 H 0.0 **** 0.06
27818 H 56.43464588441694 2.49721971122284 47.32219831969917 H 0.0 **** 0.06
27819 H 57.971496593256106 2.038527256138252 48.09404221844342 H 0.0 **** 0.06
27820 H 56.54970821175246 0.9784577921334972 48.24416679359038 H 0.0 **** 0.06
27821 C 74.81604025642295 38.48498963321629 11.492428033280305 C 0.0 **** -0.24
27822 H 75.27178869796691 38.7287548720783 12.452126202445186 H 0.0 **** 0.06
27823 H 74.00974561709077 39.18869015494317 11.283484779020057 H 0.0 **** 0.06
27824 H 74.41444947886671 37.47202029286528 11.529451064289162 H 0.0 **** 0.06
27825 H 75.56787716939962 38.54905366688831 10.70633470535023 H 0.0 **** 0.06
27826 C 57.48789983057307 70.01822738867165 119.79069876964782 C 0.0 **** -0.24
27827 H 57.69110058621578 68.95010656209348 119.71059829600951 H 0.0 **** 0.06
27828 H 56.766431021799775 70.30858115336643 119.02648728321061 H 0.0 **** 0.06
27829 H 58.4126468599423 70.57511263311612 119.64884913684064 H 0.0 **** 0.06
27830 H 57.078925613471796 70.23651692823093 120.77709395521434 H 0.0 **** 0.06
27831 C 41.23830714893825 7.70371887837598 17.325939666620542 C 0.0 **** -0.24
27832 H 40.62756734352889 7.731312923646186 18.229047209313165 H 0.0 **** 0.06
27833 H 41.8628598070804 6.810120010460338 17.338892751325034 H 0.0 **** 0.06
27834 H 41.87217102371813 8.589386041398853 17.28892693159031 H 0.0 **** 0.06
27835 H 40.58960426067773 7.682319331616071 16.450487607913402 H 0.0 **** 0.06
27836 C 86.97687518058905 113.77800928130233 21.47152363561358 C 0.0 **** -0.24
27837 H 86.64372722760316 112.80719735642188 21.1059592756435 H 0.0 **** 0.06
27838 H 86.97294503279574 114.49509395130974 20.650820388551438 H 0.0 **** 0.06
27839 H 87.98695723636712 113.68894400921653 21.871792722179478 H 0.0 **** 0.06
27840 H 86.30349132059803 114.12007162229938 22.25695421745465 H 0.0 **** 0.06
27841 C 2.091330505704235 52.19668534417286 78.78367172103985 C 0.0 **** -0.24
27842 H 2.003089970182316 51.11287745506746 78.70283348446311 H 0.0 **** 0.06
27843 H 2.564587441568108 52.45213165232184 79.73260419962808 H 0.0 **** 0.06
27844 H 1.099457106001637 52.64649705051784 78.73935135161808 H 0.0 **** 0.06
27845 H 2.698320071805682 52.57439374068906 77.96102676293812 H 0.0 **** 0.06
27846 C 10.762107446599671 109.37342324145442 118.90910403561482 C 0.0 **** -0.24
27847 H 10.059434290451843 109.34611963942453 119.74147751859206 H 0.0 **** 0.06
27848 H 11.696378695252317 108.89802958436199 119.2080217797668 H 0.0 **** 0.06
27849 H 10.953861379052242 110.40906708228681 118.62905055337531 H 0.0 **** 0.06
27850 H 10.338208951822768 108.83888697642986 118.0582839491585 H 0.0 **** 0.06
27851 C 58.46817697909373 111.36437367730079 26.830692392300847 C 0.0 **** -0.24
27852 H 58.366520486835014 110.2811835153579 26.892382766204797 H 0.0 **** 0.06
27853 H 59.51185290686968 111.6219006699798 26.650500522321856 H 0.0 **** 0.06
27854 H 58.138256902643576 111.81476619641757 27.76649418363008 H 0.0 **** 0.06
27855 H 57.85484370811119 111.73967054919964 26.01152741425193 H 0.0 **** 0.06
27856 C 94.3709208084793 48.723032776725745 25.779097045892115 C 0.0 **** -0.24
27857 H 93.59382608315241 48.44824867591862 25.066216856167898 H 0.0 **** 0.06
27858 H 93.9316054817046 48.83077489157685 26.77067879914233 H 0.0 **** 0.06
27859 H 94.8232259932434 49.66831215655523 25.476728563549102 H 0.0 **** 0.06
27860 H 95.13436680797673 47.945923198605186 25.80162638584659 H 0.0 **** 0.06
27861 C 44.965590757636505 12.14885712159571 102.88885303604769 C 0.0 **** -0.24
27862 H 46.014194452207775 12.227273952923298 103.17765029031318 H 0.0 **** 0.06
27863 H 44.564892263654414 13.145454270820863 102.70017973713686 H 0.0 **** 0.06
27864 H 44.40179509175103 11.675936953804296 103.69245096129043 H 0.0 **** 0.06
27865 H 44.88340857948082 11.546565249154128 101.98401476070944 H 0.0 **** 0.06
27866 C 7.06708311823229 37.59619083833962 23.51681501904838 C 0.0 **** -0.24
27867 H 7.5969141962093545 37.5003482333928 24.464811832273824 H 0.0 **** 0.06
27868 H 6.76209203139274 36.60910547473469 23.169223832518547 H 0.0 **** 0.06
27869 H 7.72439231537993 38.05554835708017 22.777523413802065 H 0.0 **** 0.06
27870 H 6.184518043744447 38.220670734144505 23.65570152148888 H 0.0 **** 0.06
27871 C 18.820948500648456 6.79570208918193 108.3841963661431 C 0.0 **** -0.24
27872 H 18.036305920211475 7.403502629048319 108.83373855767431 H 0.0 **** 0.06
27873 H 18.44437993256662 6.333976394548216 107.47080528531544 H 0.0 **** 0.06
27874 H 19.124687248011924 6.018648085627177 109.0856566691825 H 0.0 **** 0.06
27875 H 19.677943278623786 7.425469508087929 108.14713601585603 H 0.0 **** 0.06
27876 C 12.322824093863147 92.59967334606011 84.46050994026132 C 0.0 **** -0.24
27877 H 12.730981745797084 91.64445063535499 84.7897143972811 H 0.0 **** 0.06
27878 H 12.167616492301093 93.24473218959855 85.3257165235681 H 0.0 **** 0.06
27879 H 11.370826681069964 92.4331711207636 83.95611856465945 H 0.0 **** 0.06
27880 H 13.02091068055869 93.07509640294582 83.77208151426046 H 0.0 **** 0.06
27881 C 26.53937692719822 42.12659147140754 6.253385160982905 C 0.0 **** -0.24
27882 H 26.70976863589101 41.45958678444215 7.09907788003575 H 0.0 **** 0.06
27883 H 25.85716527432686 41.65093980662209 5.548415310315818 H 0.0 **** 0.06
27884 H 27.488001736354164 42.333970863947286 5.757644809961537 H 0.0 **** 0.06
27885 H 26.102649214864414 43.059455183937786 6.608815692850744 H 0.0 **** 0.06
27886 C 28.351371619801853 2.918609181186568 23.917570956291115 C 0.0 **** -0.24
27887 H 28.939428956518526 2.2451888826498134 23.294026749420254 H 0.0 **** 0.06
27888 H 28.346865960617393 2.551962261847308 24.944760579129365 H 0.0 **** 0.06
27889 H 27.328890048996662 2.9617512456288466 23.541592315679168 H 0.0 **** 0.06
27890 H 28.79077064850297 3.915761528344433 23.88905074752563 H 0.0 **** 0.06
27891 C 4.9339431231054505 0.8831516482794655 47.619523419368335 C 0.0 **** -0.24
27892 H 5.022575521475545 -0.180159656618315 47.839879987520874 H 0.0 **** 0.06
27893 H 5.509718012760203 1.1179090174266264 46.72415926329222 H 0.0 **** 0.06
27894 H 5.3178368186878515 1.4609218471773602 48.460646457830535 H 0.0 **** 0.06
27895 H 3.8860505972926376 1.1334651019181763 47.45467765508067 H 0.0 **** 0.06
27896 C 106.50781478083104 9.769229075413847 3.5209964935984885 C 0.0 **** -0.24
27897 H 106.53073420266327 8.919256381147619 2.8380800321864257 H 0.0 **** 0.06
27898 H 107.27326515281086 10.489425044391226 3.2290456516749515 H 0.0 **** 0.06
27899 H 106.7021841734826 9.423694012092824 4.536648402247465 H 0.0 **** 0.06
27900 H 105.5276121700852 10.242261895340476 3.478671487005954 H 0.0 **** 0.06
27901 C 79.70430449172639 88.11909864500878 93.49183033795694 C 0.0 **** -0.24
27902 H 80.55240838321167 87.5545464016013 93.10507688595169 H 0.0 **** 0.06
27903 H 79.35393545562866 88.81600306333522 92.72986411371289 H 0.0 **** 0.06
27904 H 80.01142410593381 88.6732875435107 94.37827089848207 H 0.0 **** 0.06
27905 H 78.89977992015669 87.4311839531544 93.75404276830386 H 0.0 **** 0.06
27906 C 10.3085589069122 109.12526171251773 107.87938624810289 C 0.0 **** -0.24
27907 H 9.754894910098333 108.83246973177314 108.77092575294253 H 0.0 **** 0.06
27908 H 11.040377522700688 108.3546302979628 107.63625363558901 H 0.0 **** 0.06
27909 H 10.823224773485805 110.06846053153352 108.06441536711571 H 0.0 **** 0.06
27910 H 9.617002621305001 109.24685269027364 107.04521882715287 H 0.0 **** 0.06
27911 C 109.82486632296246 78.84276323098057 63.7921118167919 C 0.0 **** -0.24
27912 H 110.35729288133541 78.26525218809373 64.54814401719685 H 0.0 **** 0.06
27913 H 110.4642407038283 78.97417889141947 62.91980626681513 H 0.0 **** 0.06
27914 H 109.56060965232109 79.8185169575773 64.20058068967731 H 0.0 **** 0.06
27915 H 108.91766126550687 78.31272179285517 63.50334248937051 H 0.0 **** 0.06
27916 C 90.91677797517457 103.48530257412551 8.236630078645494 C 0.0 **** -0.24
27917 H 91.96774501235613 103.77534692065808 8.265254274011301 H 0.0 **** 0.06
27918 H 90.53504053735875 103.40516234018014 9.254527316594604 H 0.0 **** 0.06
27919 H 90.81991768823015 102.52306956912639 7.735166856770679 H 0.0 **** 0.06
27920 H 90.34713786455872 104.23873606499217 7.69214789009817 H 0.0 **** 0.06
27921 C 52.45774296054566 92.7492809315846 63.684190775031055 C 0.0 **** -0.24
27922 H 52.7380260290189 93.54614963387215 62.99505842259593 H 0.0 **** 0.06
27923 H 53.35284806783136 92.21914059862758 64.00952565092184 H 0.0 **** 0.06
27924 H 51.7856319745033 92.0543791122958 63.180037000800695 H 0.0 **** 0.06
27925 H 51.95426233507686 93.17890921737998 64.5501818247132 H 0.0 **** 0.06
27926 C 64.70309298339066 113.04926635359297 94.21731656478107 C 0.0 **** -0.24
27927 H 64.93995535662441 113.36271780926472 95.23328065090625 H 0.0 **** 0.06
27928 H 63.64995368942654 112.7728054516305 94.15843743116321 H 0.0 **** 0.06
27929 H 65.31888727153515 112.19062157883494 93.94852429220573 H 0.0 **** 0.06
27930 H 64.90227309380607 113.86983326705513 93.52756735941986 H 0.0 **** 0.06
27931 C 94.69102223959686 43.203570141753985 22.037188165852456 C 0.0 **** -0.24
27932 H 95.77550611364964 43.11356533949137 22.099810613187174 H 0.0 **** 0.06
27933 H 94.4154123566766 43.60380902450585 21.06119084541689 H 0.0 **** 0.06
27934 H 94.33590415760801 43.87426539355971 22.81895838827532 H 0.0 **** 0.06
27935 H 94.23748946786273 42.220439172353025 22.16847145712191 H 0.0 **** 0.06
27936 C 15.23528007920629 12.582045586817845 17.363417090745656 C 0.0 **** -0.24
27937 H 14.967015969677561 13.513985555064359 16.866502678986592 H 0.0 **** 0.06
27938 H 15.46496162486909 11.82397172958801 16.614923203937508 H 0.0 **** 0.06
27939 H 14.401526031439687 12.245785053838471 17.979444466467726 H 0.0 **** 0.06
27940 H 16.1089696882716 12.746785523637495 17.994089694904403 H 0.0 **** 0.06
27941 C 94.45737326463501 86.10714342133821 103.27358925787325 C 0.0 **** -0.24
27942 H 94.07039882487277 85.3726423288162 103.98138919342242 H 0.0 **** 0.06
27943 H 95.4090610729516 86.49530915708434 103.63737960626315 H 0.0 **** 0.06
27944 H 93.74477064516478 86.92466089938515 103.1739485148984 H 0.0 **** 0.06
27945 H 94.6043225107002 85.63230550961396 102.30329878250325 H 0.0 **** 0.06
27946 C 23.916212884268816 24.92434841088931 53.39724733402886 C 0.0 **** -0.24
27947 H 24.931012389104154 24.75598485481146 53.03461464256452 H 0.0 **** 0.06
27948 H 23.310411531793875 24.038471008023407 53.20189187874024 H 0.0 **** 0.06
27949 H 23.48406181352277 25.78110256677286 52.880593238283836 H 0.0 **** 0.06
27950 H 23.941005457220626 25.119887141431775 54.46914780755367 H 0.0 **** 0.06
27951 C 22.259912545266445 104.57117532530174 83.3112441884823 C 0.0 **** -0.24
27952 H 21.320005188091216 104.01994240056234 83.32580774373098 H 0.0 **** 0.06
27953 H 22.87624879565169 104.260445310117 84.15520995990008 H 0.0 **** 0.06
27954 H 22.054135303568444 105.63949531927068 83.38488437104334 H 0.0 **** 0.06
27955 H 22.786426935122904 104.36579030206568 82.37923061897698 H 0.0 **** 0.06
27956 C 73.70188304048648 39.91182055414865 16.51690779088233 C 0.0 **** -0.24
27957 H 74.5271604539857 40.584606418879474 16.284253402128627 H 0.0 **** 0.06
27958 H 73.37428745573531 39.40892062063989 15.60651911191853 H 0.0 **** 0.06
27959 H 72.87344868526226 40.483564415908205 16.934842199478055 H 0.0 **** 0.06
27960 H 74.03417394085984 39.1691381136248 17.243251604659633 H 0.0 **** 0.06
27961 C 62.030182065529374 29.230474876022974 62.831886798325144 C 0.0 **** -0.24
27962 H 62.5299915611333 30.131744237770356 63.18561644857135 H 0.0 **** 0.06
27963 H 61.99651904423604 28.495217512416673 63.63611073438133 H 0.0 **** 0.06
27964 H 62.579409237879645 28.818201519056203 61.98521512689163 H 0.0 **** 0.06
27965 H 61.014666371130375 29.47659261234024 62.52158429585094 H 0.0 **** 0.06
27966 C 48.933549272368595 32.635229708204406 100.02828743547238 C 0.0 **** -0.24
27967 H 49.69292521046074 32.338501365526454 99.30455460971643 H 0.0 **** 0.06
27968 H 49.12633448798459 32.14088122708017 100.98010260373826 H 0.0 **** 0.06
27969 H 47.949690899428276 32.347793587555216 99.6609119472273 H 0.0 **** 0.06
27970 H 48.96820810854865 33.71649254594139 100.165947201025 H 0.0 **** 0.06
27971 C 25.776206498859437 39.502919355475626 28.978410791880776 C 0.0 **** -0.24
27972 H 24.738431228223135 39.20490023204448 29.128636657296113 H 0.0 **** 0.06
27973 H 26.23030468404818 39.731782503763355 29.943552911373388 H 0.0 **** 0.06
27974 H 25.8114924173787 40.38690636265139 28.34110817826314 H 0.0 **** 0.06
27975 H 26.323338573945193 38.689468394663976 28.5030859827624 H 0.0 **** 0.06
27976 C 117.37145174413826 113.07887084934728 100.59932815263747 C 0.0 **** -0.24
27977 H 118.17157158185464 112.35936363063738 100.42621460295439 H 0.0 **** 0.06
27978 H 117.80195444048525 114.05253105364702 100.83072797371864 H 0.0 **** 0.06
27979 H 116.7571438604594 112.74426735151829 101.43613106204774 H 0.0 **** 0.06
27980 H 116.7541335636131 113.1567247600276 99.70373795626926 H 0.0 **** 0.06
27981 C 46.6330152307213 83.1344010355252 55.52147038378365 C 0.0 **** -0.24
27982 H 46.1641894696578 82.15547490360132 55.61975427038698 H 0.0 **** 0.06
27983 H 47.71252134800534 83.03326758737398 55.63986107001733 H 0.0 **** 0.06
27984 H 46.24420575889991 83.80229294070438 56.289243287034424 H 0.0 **** 0.06
27985 H 46.4125300371652 83.54519648021079 54.536578993704836 H 0.0 **** 0.06
27986 C 74.12683421043269 54.31866352045293 34.284041740324916 C 0.0 **** -0.24
27987 H 75.02316098448199 54.767862744017435 33.85731930794336 H 0.0 **** 0.06
27988 H 74.1578969144789 53.23819329780707 34.138453304950104 H 0.0 **** 0.06
27989 H 73.24503632146173 54.72772482532851 33.79085512199926 H 0.0 **** 0.06
27990 H 74.08294863672253 54.54005630756761 35.35109566334825 H 0.0 **** 0.06
27991 C 79.33054118343249 60.950376014344386 22.536854420756555 C 0.0 **** -0.24
27992 H 79.87422358977321 60.36805996535952 23.280785982098763 H 0.0 **** 0.06
27993 H 79.30013216606116 60.39879624973122 21.596594444083706 H 0.0 **** 0.06
27994 H 79.8353767798643 61.90370445446422 22.381858961890828 H 0.0 **** 0.06
27995 H 78.31448705792195 61.12929992256312 22.886737095666234 H 0.0 **** 0.06
27996 C 77.09850565193436 19.31633463920471 9.916245206440493 C 0.0 **** -0.24
27997 H 76.29734683452152 19.679004006901664 9.272875838565795 H 0.0 **** 0.06
27998 H 77.22233394333476 19.99539024702912 10.760040063549042 H 0.0 **** 0.06
27999 H 78.02763036147785 19.267643469692672 9.348541813827183 H 0.0 **** 0.06
28000 H 76.84571918470914 18.32164305631639 10.285028922103038 H 0.0 **** 0.06
28001 C 60.42772775336864 16.890665243812407 45.0995357167435 C 0.0 **** -0.24
28002 H 60.36553580347763 17.976545847067598 45.154490902967865 H 0.0 **** 0.06
28003 H 59.90249203032512 16.453587782447073 45.94927007578386 H 0.0 **** 0.06
28004 H 61.47326613916651 16.584081730724336 45.12278906039484 H 0.0 **** 0.06
28005 H 59.96930962005517 16.546400820045505 44.17290607873991 H 0.0 **** 0.06
28006 C 41.98308492329832 73.6519999671161 0.2660375218518425 C 0.0 **** -0.24
28007 H 42.39397446778119 73.01326914300674 1.0481688707443624 H 0.0 **** 0.06
28008 H 42.06725519503155 74.69584543729782 0.5696750512093445 H 0.0 **** 0.06
28009 H 40.934469320983084 73.40288805904875 0.10704311920370913 H 0.0 **** 0.06
28010 H 42.53829465661127 73.49634139222793 -0.658963163428183 H 0.0 **** 0.06
28011 C 4.8888682666176635 71.64603778376359 92.12091142062837 C 0.0 **** -0.24
28012 H 4.415171463947928 71.5080725247308 93.09226952772846 H 0.0 **** 0.06
28013 H 5.596011858635563 70.8354943237519 91.94290866851821 H 0.0 **** 0.06
28014 H 5.417262498725194 72.59923594600401 92.10740220432422 H 0.0 **** 0.06
28015 H 4.127027245161713 71.64134834056777 91.34106528194289 H 0.0 **** 0.06
28016 C 15.68164966761854 46.683780145512515 35.3890554483566 C 0.0 **** -0.24
28017 H 15.166900861885512 46.56189071594898 36.34171661721075 H 0.0 **** 0.06
28018 H 16.04978883537677 45.71596861796834 35.0484411315538 H 0.0 **** 0.06
28019 H 16.52131918014918 47.367867024522454 35.51503164045178 H 0.0 **** 0.06
28020 H 14.989753667645058 47.08983109900544 34.65170667647877 H 0.0 **** 0.06
28021 C 79.13938104362424 9.55813914754846 83.32827293384209 C 0.0 **** -0.24
28022 H 79.68718924759807 10.243462845081893 83.9742088818874 H 0.0 **** 0.06
28023 H 79.47510810599508 9.683339412041903 82.2983040020023 H 0.0 **** 0.06
28024 H 78.07264404382752 9.773145505879995 83.39235221870443 H 0.0 **** 0.06
28025 H 79.32252925884478 8.531890150002965 83.64891995270293 H 0.0 **** 0.06
28026 C 114.48337114800779 64.50528747059947 80.31594968084875 C 0.0 **** -0.24
28027 H 113.82434562606795 65.33622615934482 80.56673632469524 H 0.0 **** 0.06
28028 H 114.35328895552448 64.24420969671934 79.26506824239293 H 0.0 **** 0.06
28029 H 114.23658299444776 63.64497545976725 80.9368582700158 H 0.0 **** 0.06
28030 H 115.51843349821416 64.79705191206943 80.49324361425778 H 0.0 **** 0.06
28031 C 80.263507675987 63.66242410302445 83.0548459323465 C 0.0 **** -0.24
28032 H 79.46176414966975 62.931165049987655 82.95950893520791 H 0.0 **** 0.06
28033 H 80.47069694729697 63.83849306716098 84.11074795111256 H 0.0 **** 0.06
28034 H 79.96192716435255 64.59663697051312 82.58266678963213 H 0.0 **** 0.06
28035 H 81.16144392159471 63.28204882939809 82.56742221373719 H 0.0 **** 0.06
28036 C 68.46663391883584 63.886969440280694 102.19590328995145 C 0.0 **** -0.24
28037 H 69.12607454123537 63.02092069366367 102.14300414500889 H 0.0 **** 0.06
28038 H 67.4870853973454 63.6215067197741 101.79621336911046 H 0.0 **** 0.06
28039 H 68.88913217754043 64.70274381595023 101.61055209841669 H 0.0 **** 0.06
28040 H 68.36223479603967 64.20076285265098 103.23493325581285 H 0.0 **** 0.06
28041 C 98.71732303142318 0.5143434063494254 94.91410020833533 C 0.0 **** -0.24
28042 H 98.99448360766013 -0.5160281612809001 94.69412500809293 H 0.0 **** 0.06
28043 H 99.4873597371377 0.9726601235558405 95.53563623369024 H 0.0 **** 0.06
28044 H 97.76542609579332 0.5282406306535847 95.44504446486101 H 0.0 **** 0.06
28045 H 98.62257997420227 1.0720572081188777 93.98281682880986 H 0.0 **** 0.06
28046 C 5.887513443505071 34.9165844594637 119.41374393050506 C 0.0 **** -0.24
28047 H 5.9179425900412745 35.14652086001599 120.47869370196884 H 0.0 **** 0.06
28048 H 6.6929496334503895 35.44597843155561 118.90528720497701 H 0.0 **** 0.06
28049 H 4.928218063931855 35.230080176468434 119.00204681746521 H 0.0 **** 0.06
28050 H 6.0106895586056694 33.84248574832035 119.27146123935972 H 0.0 **** 0.06
28051 C 46.26493515652143 20.51496097534873 69.57485991152917 C 0.0 **** -0.24
28052 H 46.61531581383815 19.493842228525306 69.42241766552267 H 0.0 **** 0.06
28053 H 47.01170762167263 21.21481032356514 69.19718599259248 H 0.0 **** 0.06
28054 H 46.107039473927244 20.690646218322 70.6382278029545 H 0.0 **** 0.06
28055 H 45.327496686302965 20.660150538486093 69.03836220339456 H 0.0 **** 0.06
28056 C 88.6592178910092 81.49460285968485 50.43584307812807 C 0.0 **** -0.24
28057 H 88.29638226459501 81.61679325408227 51.45692905955451 H 0.0 **** 0.06
28058 H 87.89601328641682 80.9995976022858 49.83538805787839 H 0.0 **** 0.06
28059 H 89.56559802947322 80.88922388105334 50.44378299287956 H 0.0 **** 0.06
28060 H 88.87959269840624 82.4736196808795 50.01085167674927 H 0.0 **** 0.06
28061 C 21.522489045467978 54.57968491320199 109.02498243425117 C 0.0 **** -0.24
28062 H 21.874889407517344 55.356641194730955 108.34635098509517 H 0.0 **** 0.06
28063 H 20.43241197423083 54.58883129891248 109.05289452119214 H 0.0 **** 0.06
28064 H 21.914063194127692 54.766175939866784 110.02458457903003 H 0.0 **** 0.06
28065 H 21.868796020741144 53.60741516417477 108.6744104402737 H 0.0 **** 0.06
28066 C 19.464073703757947 72.12857129659766 92.3192591834217 C 0.0 **** -0.24
28067 H 19.195956557942623 73.1463089487508 92.03637943357629 H 0.0 **** 0.06
28068 H 18.941701456832448 71.857959934996 93.2368001510994 H 0.0 **** 0.06
28069 H 20.54032735959896 72.06902125252265 92.48207681872736 H 0.0 **** 0.06
28070 H 19.178805716590205 71.4433901581898 91.52191257732835 H 0.0 **** 0.06
28071 C 97.94479809199757 64.93190341970728 49.02178464606018 C 0.0 **** -0.24
28072 H 98.90412565633844 65.2873688131618 49.398181641452794 H 0.0 **** 0.06
28073 H 97.6784736329021 64.00301479052229 49.5267380482168 H 0.0 **** 0.06
28074 H 98.01955856629394 64.75507356752689 47.94871531258977 H 0.0 **** 0.06
28075 H 97.17859861247322 65.6828839344879 49.21366043272744 H 0.0 **** 0.06
28076 C 26.067107207176093 91.12272549297433 66.7210725396607 C 0.0 **** -0.24
28077 H 25.30600965074356 90.52466134899453 67.22356091596454 H 0.0 **** 0.06
28078 H 25.943342483881736 91.03344811217396 65.64141213225845 H 0.0 **** 0.06
28079 H 27.055974267775397 90.7644844168088 67.00547704047851 H 0.0 **** 0.06
28080 H 25.960070510014503 92.1674948634022 67.01530526044893 H 0.0 **** 0.06
28081 C 74.76465363013901 7.389056432507676 115.88341304160463 C 0.0 **** -0.24
28082 H 74.10723459470543 6.920402710933033 116.61613989489851 H 0.0 **** 0.06
28083 H 74.19659712533227 7.621106539104797 114.98262824255605 H 0.0 **** 0.06
28084 H 75.57693897110782 6.705528668496658 115.63482489651403 H 0.0 **** 0.06
28085 H 75.17703486607289 8.308031777771657 116.29996284333569 H 0.0 **** 0.06
28086 C 59.975090078729835 47.623707903466176 41.31865956699333 C 0.0 **** -0.24
28087 H 59.20271845226742 46.86333718084265 41.42979500985609 H 0.0 **** 0.06
28088 H 60.88272316513164 47.2970989020448 41.826192270853056 H 0.0 **** 0.06
28089 H 59.62921807170315 48.560151941801784 41.75851628023065 H 0.0 **** 0.06
28090 H 60.185238906568514 47.77591173482913 40.26006939023796 H 0.0 **** 0.06
28091 C 83.93416811739031 9.569247984871978 63.46042651778514 C 0.0 **** -0.24
28092 H 83.19204334625124 9.803517628727462 64.22371039167069 H 0.0 **** 0.06
28093 H 84.86288771732221 10.093379453723998 63.68432554763237 H 0.0 **** 0.06
28094 H 83.56349489201939 9.885063612226674 62.48558215989445 H 0.0 **** 0.06
28095 H 84.11517957011813 8.494456959135945 63.44860235275601 H 0.0 **** 0.06
28096 C 86.68542229812309 49.88573071902118 39.52998171842111 C 0.0 **** -0.24
28097 H 86.09576078024187 50.563007492922424 40.14881710885717 H 0.0 **** 0.06
28098 H 86.17141919024871 49.71993598143138 38.58285889073122 H 0.0 **** 0.06
28099 H 86.80909100817988 48.93566282296179 40.048238088230704 H 0.0 **** 0.06
28100 H 87.66381877295058 50.32659599775509 39.34050924027079 H 0.0 **** 0.06
28101 C 48.96177391284044 79.00143503066225 6.642979363319796 C 0.0 **** -0.24
28102 H 48.06487972017723 78.48260118904372 6.305605797527534 H 0.0 **** 0.06
28103 H 49.22281442423039 79.77973889040278 5.9266403350256205 H 0.0 **** 0.06
28104 H 49.784235382190886 78.28978964691849 6.722217883268151 H 0.0 **** 0.06
28105 H 48.77575388931621 79.451707041746 7.617632291669764 H 0.0 **** 0.06
28106 C 18.731222191768012 96.78031517291062 23.367032639543936 C 0.0 **** -0.24
28107 H 17.988837232728997 96.02708824878903 23.102997631057832 H 0.0 **** 0.06
28108 H 19.474089054757286 96.33971236267156 24.031989553247627 H 0.0 **** 0.06
28109 H 18.239887874767135 97.61302356583944 23.871568164805666 H 0.0 **** 0.06
28110 H 19.221078773992474 97.1409869598222 22.462919226389545 H 0.0 **** 0.06
28111 C 23.76306895415238 112.54836571535154 22.573358309530647 C 0.0 **** -0.24
28112 H 23.471432705602282 112.7357028145702 23.606981470766897 H 0.0 **** 0.06
28113 H 22.875410755763802 112.32869153765716 21.98056841566104 H 0.0 **** 0.06
28114 H 24.445223284640107 111.69963303849414 22.536264325178934 H 0.0 **** 0.06
28115 H 24.259539471620975 113.43172725054725 22.17113553937574 H 0.0 **** 0.06
28116 C 0.3202637732127016 97.93470608366768 50.965814510390594 C 0.0 **** -0.24
28117 H -0.10256950502120787 96.94225510769759 51.120697584078584 H 0.0 **** 0.06
28118 H 1.375852287030284 97.92749483092051 51.23879369232764 H 0.0 **** 0.06
28119 H -0.2110532224369166 98.6565619020231 51.58503504079849 H 0.0 **** 0.06
28120 H 0.2188516090172925 98.2127804294311 49.9162970062181 H 0.0 **** 0.06
28121 C 46.03846848555341 57.47334185008884 14.276280517815053 C 0.0 **** -0.24
28122 H 45.39886334483684 58.32270898075453 14.515350435181887 H 0.0 **** 0.06
28123 H 46.163399548546366 56.852712314984046 15.164002859685667 H 0.0 **** 0.06
28124 H 47.01240225347868 57.83438298431972 13.945236649401693 H 0.0 **** 0.06
28125 H 45.57970318059381 56.8846045573398 13.482693449239093 H 0.0 **** 0.06
28126 C 13.918457818663057 92.2790729454383 65.52269442919534 C 0.0 **** -0.24
28127 H 13.525835219471787 91.73909251620192 64.66127100223659 H 0.0 **** 0.06
28128 H 14.662519717465386 91.66290722201816 66.02987144815518 H 0.0 **** 0.06
28129 H 13.10391494860852 92.50483854485694 66.21124910272664 H 0.0 **** 0.06
28130 H 14.381060476271216 93.20753833147059 65.18982891889084 H 0.0 **** 0.06
28131 C 97.77852494024347 105.70881487998605 40.250040503694066 C 0.0 **** -0.24
28132 H 97.04193102012857 106.51112188097716 40.21422779035933 H 0.0 **** 0.06
28133 H 97.8615122249787 105.33637975155335 41.27127060233579 H 0.0 **** 0.06
28134 H 98.74613313544904 106.08773718280884 39.92049233622578 H 0.0 **** 0.06
28135 H 97.4635355895769 104.8973945152648 39.59240267378206 H 0.0 **** 0.06
28136 C 36.25756176897598 99.33742960225698 28.33494052761821 C 0.0 **** -0.24
28137 H 36.84119733740723 98.43740292172794 28.14088069849526 H 0.0 **** 0.06
28138 H 36.62516201699153 99.81869866315907 29.241860544752157 H 0.0 **** 0.06
28139 H 35.209659193538585 99.0693447397694 28.464583633379412 H 0.0 **** 0.06
28140 H 36.35667971127321 100.02309561767498 27.493217012981255 H 0.0 **** 0.06
28141 C 6.151615045698463 21.713796680753404 97.27905132096511 C 0.0 **** -0.24
28142 H 7.216484720467065 21.945709720779462 97.31907244864752 H 0.0 **** 0.06
28143 H 5.9690593163830385 20.982454793139766 96.4911317790295 H 0.0 **** 0.06
28144 H 5.589395071578679 22.623083452703 97.06859485286628 H 0.0 **** 0.06
28145 H 5.833352604149695 21.303238048309865 98.23701285699623 H 0.0 **** 0.06
28146 C 30.15938098480882 25.305975220304397 26.26518842716446 C 0.0 **** -0.24
28147 H 29.5401881778334 25.98025312165263 25.67298717633954 H 0.0 **** 0.06
28148 H 30.49948325415437 25.820929145843436 27.1630662309924 H 0.0 **** 0.06
28149 H 31.02083676431556 24.99332297587535 25.675891245041193 H 0.0 **** 0.06
28150 H 29.574673726011042 24.43021289740676 26.547449838663354 H 0.0 **** 0.06
28151 C 17.192767209245375 60.715165228281904 96.74212013910504 C 0.0 **** -0.24
28152 H 16.356746469054556 61.10846403627892 97.32007000882153 H 0.0 **** 0.06
28153 H 17.553761336060333 61.482733436864834 96.05791843914965 H 0.0 **** 0.06
28154 H 16.863466922829787 59.845407456584866 96.17264098484912 H 0.0 **** 0.06
28155 H 17.99631424814207 60.42366533653174 97.4183402714645 H 0.0 **** 0.06
28156 C 57.89876396880274 40.5164390515049 113.93313376902472 C 0.0 **** -0.24
28157 H 56.92578189752095 40.411317488917405 114.41320465860476 H 0.0 **** 0.06
28158 H 58.47187875776052 41.293253872492016 114.44114457613786 H 0.0 **** 0.06
28159 H 57.76102065671434 40.79092227861392 112.88748831147674 H 0.0 **** 0.06
28160 H 58.437056224705245 39.569762401995746 113.99299655039437 H 0.0 **** 0.06
28161 C 30.43645339775958 1.3585177978057175 120.41166665685375 C 0.0 **** -0.24
28162 H 29.931852626617456 2.2736680182223097 120.72165189652293 H 0.0 **** 0.06
28163 H 30.952120480445245 1.531411064524974 119.46668140685225 H 0.0 **** 0.06
28164 H 29.702161821395293 0.5634959737195686 120.28599315098342 H 0.0 **** 0.06
28165 H 31.159895557589437 1.0671869424173508 121.1726472347417 H 0.0 **** 0.06
28166 C 63.92387589015135 51.423278582318005 38.80103657382719 C 0.0 **** -0.24
28167 H 63.51188732741866 50.68347474548932 38.11443593758926 H 0.0 **** 0.06
28168 H 63.19179298386467 52.215342065090795 38.962591006593186 H 0.0 **** 0.06
28169 H 64.83210873746327 51.848895267468095 38.374338507586515 H 0.0 **** 0.06
28170 H 64.15795451573598 50.944730884624335 39.75157587521906 H 0.0 **** 0.06
28171 C 28.72397717820553 25.199411443935297 100.7310432060504 C 0.0 **** -0.24
28172 H 28.904510802377814 24.400959203180285 101.44945690079379 H 0.0 **** 0.06
28173 H 28.700843984677732 26.157238630209 101.25096979106712 H 0.0 **** 0.06
28174 H 27.76896064146473 25.031861203306207 100.23307730527372 H 0.0 **** 0.06
28175 H 29.52301609340185 25.207737715386912 99.9886805760392 H 0.0 **** 0.06
28176 C 80.4507211920885 39.21916403632443 109.41890966615422 C 0.0 **** -0.24
28177 H 80.77213143162018 38.47355179604996 110.14674178916869 H 0.0 **** 0.06
28178 H 81.27307140089279 39.904752787039 109.21373919731953 H 0.0 **** 0.06
28179 H 79.60401461884068 39.77585604336987 109.8193801975291 H 0.0 **** 0.06
28180 H 80.15423646474552 38.72086061111165 108.49571996156925 H 0.0 **** 0.06
28181 C 56.33086548761739 113.67409954158566 67.57676696608516 C 0.0 **** -0.24
28182 H 55.971170340305235 112.64659845416963 67.5216069472715 H 0.0 **** 0.06
28183 H 55.49520107405223 114.34000189084578 67.79296080867383 H 0.0 **** 0.06
28184 H 56.78088207521208 113.95324456844507 66.62411392031117 H 0.0 **** 0.06
28185 H 57.0753670068481 113.75607381241961 68.36813689800229 H 0.0 **** 0.06
28186 C 98.9354638272174 21.992441283717284 109.80280416781818 C 0.0 **** -0.24
28187 H 99.31976413924515 22.7523205951357 110.48228951694395 H 0.0 **** 0.06
28188 H 98.14975470613908 21.42405146750022 110.29925440176251 H 0.0 **** 0.06
28189 H 99.74477575764975 21.32077783440738 109.51531477173404 H 0.0 **** 0.06
28190 H 98.52926849619492 22.473607660604927 108.91290923280081 H 0.0 **** 0.06
28191 C 88.2377288763945 47.302055752066444 49.97468935058292 C 0.0 **** -0.24
28192 H 87.56600396074678 47.40049906071062 50.82789231612373 H 0.0 **** 0.06
28193 H 88.77103122703737 46.35248375746482 50.039399890739 H 0.0 **** 0.06
28194 H 88.95467288609476 48.122848860733455 49.97944823260778 H 0.0 **** 0.06
28195 H 87.6591780402713 47.331035492706405 49.050939463908826 H 0.0 **** 0.06
28196 C 41.96292581285056 29.104923260950073 60.219821212921715 C 0.0 **** -0.24
28197 H 42.84648983796413 28.550846121183966 59.903283960775696 H 0.0 **** 0.06
28198 H 41.40826121078433 28.517295137183595 60.95150084624592 H 0.0 **** 0.06
28199 H 41.32899146186236 29.299998239733505 59.35477918798203 H 0.0 **** 0.06
28200 H 42.26785270361904 30.05080329460337 60.666818110763415 H 0.0 **** 0.06
28201 C 72.89371964966071 112.99877361859447 7.939155357390632 C 0.0 **** -0.24
28202 H 72.41084732912277 112.21990574194425 8.53093991457439 H 0.0 **** 0.06
28203 H 72.58743693644928 112.9051724097512 6.897080772188815 H 0.0 **** 0.06
28204 H 73.9753280645671 112.89155557947953 8.012286485265747 H 0.0 **** 0.06
28205 H 72.59813742903323 113.97681377553198 8.318863547613091 H 0.0 **** 0.06
28206 C 59.4894637735249 53.03275695482128 66.87720331073174 C 0.0 **** -0.24
28207 H 59.32259690772884 51.95570155821818 66.88591087308957 H 0.0 **** 0.06
28208 H 58.771592182951224 53.5054113925642 66.2061594080231 H 0.0 **** 0.06
28209 H 60.501518793305365 53.24076901294906 66.53069169411518 H 0.0 **** 0.06
28210 H 59.36062572228576 53.42828044208592 67.88433765862456 H 0.0 **** 0.06
28211 C 54.690189869893544 5.516544102974535 62.07891376254946 C 0.0 **** -0.24
28212 H 54.936555532173 4.51668163852284 61.71930312929976 H 0.0 **** 0.06
28213 H 55.543224752621825 6.177454879762479 61.92499123552477 H 0.0 **** 0.06
28214 H 54.45227243424486 5.471031748355699 63.14155086626448 H 0.0 **** 0.06
28215 H 53.830138589255085 5.897566994185837 61.52947952143927 H 0.0 **** 0.06
28216 C 55.48403047672332 78.88473718001644 74.7038837284487 C 0.0 **** -0.24
28217 H 56.51207570554514 78.73004605561229 74.37674559897758 H 0.0 **** 0.06
28218 H 55.10038377367027 77.96271720412987 75.14235397444055 H 0.0 **** 0.06
28219 H 54.868368617477245 79.16472413872344 73.84911798121878 H 0.0 **** 0.06
28220 H 55.455835488906686 79.68083106387591 75.4484616784436 H 0.0 **** 0.06
28221 C 115.22258669412528 23.33934028044345 33.71332507676718 C 0.0 **** -0.24
28222 H 115.23986044499426 24.387779645603615 34.011530108248735 H 0.0 **** 0.06
28223 H 115.69850536130656 23.231111709452563 32.73825084735441 H 0.0 **** 0.06
28224 H 114.18950031645599 22.996756451581376 33.65378040845383 H 0.0 **** 0.06
28225 H 115.76171888731506 22.743698659748844 34.4490472878997 H 0.0 **** 0.06
28226 C 113.567931837162 9.767037132330643 74.23376392615438 C 0.0 **** -0.24
28227 H 113.32416345072156 9.150141983800495 73.3683125386791 H 0.0 **** 0.06
28228 H 114.64707344273646 9.760142271530071 74.39206631483886 H 0.0 **** 0.06
28229 H 113.06877628661067 9.367112617494854 75.11641551622836 H 0.0 **** 0.06
28230 H 113.23264435029583 10.788750930015397 74.05789784671792 H 0.0 **** 0.06
28231 C 29.546183524409116 21.112463818625145 10.764036334596085 C 0.0 **** -0.24
28232 H 29.85098272350089 22.157082789698904 10.819256902725868 H 0.0 **** 0.06
28233 H 28.65732022821507 20.960739231603952 11.375963918557744 H 0.0 **** 0.06
28234 H 30.353362494853855 20.47851681150337 11.131803978433823 H 0.0 **** 0.06
28235 H 29.323697084699532 20.852738701114447 9.7291361714164 H 0.0 **** 0.06
28236 C 40.29607356284731 81.53727741158382 58.59599830622746 C 0.0 **** -0.24
28237 H 41.27693030836221 82.00679803135269 58.51899727662399 H 0.0 **** 0.06
28238 H 39.907735672372894 81.34213252301204 57.59672365594044 H 0.0 **** 0.06
28239 H 39.61583960625441 82.2035152450232 59.12623184076969 H 0.0 **** 0.06
28240 H 40.385034781513355 80.59819737070198 59.14173107877674 H 0.0 **** 0.06
28241 C 37.369177911787986 13.666268711148362 112.22588380363072 C 0.0 **** -0.24
28242 H 36.52129046940356 13.57937712551427 112.90484949487404 H 0.0 **** 0.06
28243 H 38.24043312742854 13.181557945126457 112.6683005965053 H 0.0 **** 0.06
28244 H 37.58953189869775 14.719827558119036 112.05253268659229 H 0.0 **** 0.06
28245 H 37.12633732045737 13.185147164076653 111.27857804675216 H 0.0 **** 0.06
28246 C 97.3279054018436 73.30875775421589 98.54432710135669 C 0.0 **** -0.24
28247 H 97.40429029988299 74.34210368516631 98.88394348544415 H 0.0 **** 0.06
28248 H 96.28103028409852 73.00431941642728 98.54108329799325 H 0.0 **** 0.06
28249 H 97.89245985023177 72.66360137094011 99.21656527044107 H 0.0 **** 0.06
28250 H 97.73319887324611 73.22734381995247 97.53536291806569 H 0.0 **** 0.06
28251 C 84.88416879191993 60.10573512130104 13.313421671297881 C 0.0 **** -0.24
28252 H 85.16163189442608 59.30586880868822 14.000084488959505 H 0.0 **** 0.06
28253 H 84.31753375031354 60.86544265513682 13.850958507320847 H 0.0 **** 0.06
28254 H 84.2740187135388 59.69681628189109 12.508146585156052 H 0.0 **** 0.06
28255 H 85.78634185622622 60.55239013715719 12.894554380978374 H 0.0 **** 0.06
28256 C 96.29410950022317 53.06420837854745 103.34210224347846 C 0.0 **** -0.24
28257 H 95.33197309186474 53.2903422638568 103.80126417749291 H 0.0 **** 0.06
28258 H 97.0834076175458 53.59405572192843 103.87528417955359 H 0.0 **** 0.06
28259 H 96.28162944094242 53.381941716797684 102.29955945022571 H 0.0 **** 0.06
28260 H 96.4772029950461 51.99017869003313 103.39327637850033 H 0.0 **** 0.06
28261 C 61.46814105509705 97.74196258447688 76.86686768227884 C 0.0 **** -0.24
28262 H 61.010330450733164 98.72520847630148 76.9737257966587 H 0.0 **** 0.06
28263 H 60.784696023675934 96.980372257505 77.24249619014384 H 0.0 **** 0.06
28264 H 62.39597201857384 97.70990947410075 77.43779061481527 H 0.0 **** 0.06
28265 H 61.682195351512064 97.5530087208144 75.8155034078109 H 0.0 **** 0.06
28266 C 15.378332101981215 29.75461415265835 26.64819041551081 C 0.0 **** -0.24
28267 H 16.32855439211707 29.911676798916517 26.138308465417566 H 0.0 **** 0.06
28268 H 14.731207139419496 29.134054991530476 26.027254518341692 H 0.0 **** 0.06
28269 H 14.898233880233988 30.71640342930766 26.825818502501534 H 0.0 **** 0.06
28270 H 15.55522903290958 29.255483655489016 27.60084403710252 H 0.0 **** 0.06
28271 C 65.23609642201694 55.789013642351335 110.46954225828173 C 0.0 **** -0.24
28272 H 65.82824300680082 55.20410207488794 111.17440442012256 H 0.0 **** 0.06
28273 H 65.8051896622878 56.66497465700536 110.1561815081779 H 0.0 **** 0.06
28274 H 64.31152751902577 56.10763986538109 110.94924351199117 H 0.0 **** 0.06
28275 H 65.0019740545839 55.17660666463888 109.59855308618756 H 0.0 **** 0.06
28276 C 13.25205839238646 9.912450129394898 81.10507885209387 C 0.0 **** -0.24
28277 H 12.658916748217791 10.397985988032417 81.87999989644135 H 0.0 **** 0.06
28278 H 13.288450569577833 8.839664607545942 81.29593106781829 H 0.0 **** 0.06
28279 H 14.264346382239637 10.31745108290042 81.11429838312387 H 0.0 **** 0.06
28280 H 12.796905116555479 10.09334815038568 80.13182603019516 H 0.0 **** 0.06
28281 C 56.568840551251625 61.02533645424609 3.6637089131555047 C 0.0 **** -0.24
28282 H 55.610611292336756 60.53796229656632 3.481407318510543 H 0.0 **** 0.06
28283 H 56.89477772113692 61.53585938606875 2.7581107991615745 H 0.0 **** 0.06
28284 H 57.30877009049436 60.27583589258563 3.9462366886158264 H 0.0 **** 0.06
28285 H 56.45940923090127 61.7502106596902 4.471225448251541 H 0.0 **** 0.06
28286 C 37.514924721074486 38.635899722486556 26.981108973597337 C 0.0 **** -0.24
28287 H 38.545923769545354 38.82899812974699 27.278192624784033 H 0.0 **** 0.06
28288 H 37.261514038655214 39.25952028513501 26.12316481158001 H 0.0 **** 0.06
28289 H 36.84751557699967 38.87017536675887 27.81061164366197 H 0.0 **** 0.06
28290 H 37.404745499097736 37.58490510830546 26.712466814363395 H 0.0 **** 0.06
28291 C 18.68619540370969 97.62033672527568 73.65875855075518 C 0.0 **** -0.24
28292 H 19.43594618810897 97.10031272152096 74.25517997294507 H 0.0 **** 0.06
28293 H 17.817243346580824 96.97533893885392 73.52454625935648 H 0.0 **** 0.06
28294 H 19.1063980734574 97.87011122560193 72.68466917775882 H 0.0 **** 0.06
28295 H 18.385613753655207 98.53423369787257 74.17066252162962 H 0.0 **** 0.06
28296 C 41.74738820805601 38.393313913681254 99.23297760548442 C 0.0 **** -0.24
28297 H 41.052233140231436 38.200378857340866 98.41559077619696 H 0.0 **** 0.06
28298 H 42.07521714621339 37.446072696220426 99.66121582372644 H 0.0 **** 0.06
28299 H 41.24962964645721 38.98576234518629 100.00125101105245 H 0.0 **** 0.06
28300 H 42.6103636306365 38.940348365136 98.85411825939798 H 0.0 **** 0.06
28301 C 78.11937318162208 29.878460099312157 61.75747603966245 C 0.0 **** -0.24
28302 H 78.97497972909994 29.792562021691793 62.42793014597545 H 0.0 **** 0.06
28303 H 77.27519190920063 29.32798548700771 62.172881136135516 H 0.0 **** 0.06
28304 H 78.37892896847421 29.46521616924904 60.78288179181429 H 0.0 **** 0.06
28305 H 77.84960683414764 30.928729627346968 61.64589757687344 H 0.0 **** 0.06
28306 C 68.98169551679919 85.60228065403089 108.22613884758971 C 0.0 **** -0.24
28307 H 68.31599304364809 85.51126228438068 109.08429359379087 H 0.0 **** 0.06
28308 H 70.01199005737686 85.4518892683003 108.54924149412115 H 0.0 **** 0.06
28309 H 68.87820509831349 86.59637789411414 107.79084683690449 H 0.0 **** 0.06
28310 H 68.71957372706245 84.84993956670496 107.48213295265205 H 0.0 **** 0.06
28311 C 30.629131268856213 4.11966742723223 46.814848470928396 C 0.0 **** -0.24
28312 H 31.64515505108494 3.986498323358717 46.44424041312121 H 0.0 **** 0.06
28313 H 30.22038935977571 3.1529498243847627 47.10895871518318 H 0.0 **** 0.06
28314 H 30.009758825967992 4.553277625206874 46.029581197929986 H 0.0 **** 0.06
28315 H 30.642309249607933 4.786007886303906 47.6775155302589 H 0.0 **** 0.06
28316 C 97.7334514718467 70.95854733872676 16.662331102224073 C 0.0 **** -0.24
28317 H 97.57726835015029 71.93572422864554 17.120305898438914 H 0.0 **** 0.06
28318 H 98.37169068286494 71.06707801402143 15.784532382381997 H 0.0 **** 0.06
28319 H 96.7726602373233 70.54075771620774 16.363281460493567 H 0.0 **** 0.06
28320 H 98.21303222940764 70.29366853807267 17.379773165265306 H 0.0 **** 0.06
28321 C 68.79969431877271 89.63408519544234 80.15241199582718 C 0.0 **** -0.24
28322 H 68.6865264765101 88.76155813798228 79.5083015021481 H 0.0 **** 0.06
28323 H 69.7130592021087 90.16544501212903 79.8849684648043 H 0.0 **** 0.06
28324 H 68.85768178554912 89.3119251696928 81.19311425470046 H 0.0 **** 0.06
28325 H 67.94298973509916 90.29520283292709 80.02422698174357 H 0.0 **** 0.06
28326 C 30.251031643207625 55.81435084516394 79.36165924350205 C 0.0 **** -0.24
28327 H 30.586798824179596 55.42265484668869 78.40105506061896 H 0.0 **** 0.06
28328 H 30.3913810453013 55.05491365832512 80.13197801159775 H 0.0 **** 0.06
28329 H 29.19546733786754 56.077180761389684 79.29812108002466 H 0.0 **** 0.06
28330 H 30.83183786683125 56.700666840761755 79.61593618685188 H 0.0 **** 0.06
28331 C 65.3891727260465 9.63325888115212 14.773677697672184 C 0.0 **** -0.24
28332 H 65.73500566633487 10.502506021269529 15.333218315697252 H 0.0 **** 0.06
28333 H 65.34814217750802 8.768578520415232 15.436227384101926 H 0.0 **** 0.06
28334 H 66.07789899833352 9.431875458978553 13.953882915373356 H 0.0 **** 0.06
28335 H 64.39502895390757 9.831563979413044 14.37293343644248 H 0.0 **** 0.06
28336 C 42.376797693059444 99.24275210305194 28.844321385474558 C 0.0 **** -0.24
28337 H 41.31507123611735 98.99806471775116 28.852174575921175 H 0.0 **** 0.06
28338 H 42.87272607190576 98.73616934166506 29.671836107838132 H 0.0 **** 0.06
28339 H 42.50110017294773 100.3212453095179 28.950740847174522 H 0.0 **** 0.06
28340 H 42.8175593367944 98.91860389079 27.90153041072294 H 0.0 **** 0.06
28341 C 103.70537108855092 88.31748063591681 8.411894982817955 C 0.0 **** -0.24
28342 H 104.32061667657143 88.97617199528219 9.023510204423062 H 0.0 **** 0.06
28343 H 102.76114393924871 88.81121482267976 8.182281507233625 H 0.0 **** 0.06
28344 H 103.50945498080267 87.3941995117758 8.956880796908791 H 0.0 **** 0.06
28345 H 104.23035134046518 88.0869899414399 7.484482172546535 H 0.0 **** 0.06
28346 C 26.407136175033045 54.07247818330879 35.74500348594907 C 0.0 **** -0.24
28347 H 27.476072996112578 54.23776974578951 35.873527379490895 H 0.0 **** 0.06
28348 H 26.189280327826935 53.00966242762698 35.84631075834267 H 0.0 **** 0.06
28349 H 26.102208303380763 54.41351320810989 34.7551419470787 H 0.0 **** 0.06
28350 H 25.85903900678403 54.629800151766034 36.50576002653844 H 0.0 **** 0.06
28351 C 102.05186733860326 71.54607362056527 72.96722097170789 C 0.0 **** -0.24
28352 H 101.44919142738702 70.70844600625472 72.61653533237421 H 0.0 **** 0.06
28353 H 102.65888599736492 71.92654619004733 72.1459082043238 H 0.0 **** 0.06
28354 H 102.70277625681364 71.21145902397978 73.77571860570498 H 0.0 **** 0.06
28355 H 101.39706659371795 72.33729962538202 73.33230329129475 H 0.0 **** 0.06
28356 C 103.55792802779719 42.412859590702254 105.28980193914549 C 0.0 **** -0.24
28357 H 104.2722762733802 41.83748485304133 104.70127311094643 H 0.0 **** 0.06
28358 H 103.42869272769866 41.94293107556754 106.2650799339101 H 0.0 **** 0.06
28359 H 102.60030378838402 42.441588627797415 104.77039156027399 H 0.0 **** 0.06
28360 H 103.92988048859303 43.428517245782416 105.42154242923158 H 0.0 **** 0.06
28361 C 17.483652485997 103.26727909091596 25.437036041025735 C 0.0 **** -0.24
28362 H 18.41253470290556 103.82323278988167 25.31192013582926 H 0.0 **** 0.06
28363 H 17.217816551632012 102.78866664446855 24.4947542020645 H 0.0 **** 0.06
28364 H 16.688433325186537 103.95007238930634 25.735789267967284 H 0.0 **** 0.06
28365 H 17.616871316083802 102.5063383097434 26.206186606461365 H 0.0 **** 0.06
28366 C 90.26037633482778 62.49757447212967 94.77439403595605 C 0.0 **** -0.24
28367 H 89.90211192407236 63.50830243201804 94.5800019341296 H 0.0 **** 0.06
28368 H 90.05995659642932 61.86867717044355 93.90690696087982 H 0.0 **** 0.06
28369 H 89.74554006268639 62.09151415958938 95.64421428068681 H 0.0 **** 0.06
28370 H 91.33330283817781 62.523449226279226 94.9654828534033 H 0.0 **** 0.06
28371 C 33.74658781701092 41.07787436654104 61.65441678449709 C 0.0 **** -0.24
28372 H 32.840199711069644 40.82830360353006 62.20482905883297 H 0.0 **** 0.06
28373 H 34.39065676792666 40.2000649320168 61.59838543394264 H 0.0 **** 0.06
28374 H 34.27250180851662 41.88235577842397 62.16823175249529 H 0.0 **** 0.06
28375 H 33.48291225038699 41.400667740072095 60.64721206603838 H 0.0 **** 0.06
28376 C 19.24683646732484 49.37140952097229 35.73545036554043 C 0.0 **** -0.24
28377 H 18.870357811281522 49.19597083570052 34.72732793492804 H 0.0 **** 0.06
28378 H 18.616064462282637 50.10618192150423 36.236737663497934 H 0.0 **** 0.06
28379 H 20.268479000162273 49.745786070225506 35.68103184305875 H 0.0 **** 0.06
28380 H 19.2312286657842 48.43596775360956 36.295980362780824 H 0.0 **** 0.06
28381 C 85.35901170224483 31.161176282648796 51.39322175894183 C 0.0 **** -0.24
28382 H 85.43620954369695 30.437823848155546 52.205492343785906 H 0.0 **** 0.06
28383 H 86.32772749155939 31.63509187364832 51.23580377307268 H 0.0 **** 0.06
28384 H 84.61934233661898 31.919557085814205 51.65175908152021 H 0.0 **** 0.06
28385 H 85.05136251876735 30.649751051361363 50.481199328474894 H 0.0 **** 0.06
28386 C 71.00630699140163 86.1168771285698 120.54552252508884 C 0.0 **** -0.24
28387 H 70.15779633988245 86.3376618905669 119.89669854645048 H 0.0 **** 0.06
28388 H 71.09755106498409 85.03864552918803 120.66977126772929 H 0.0 **** 0.06
28389 H 70.84996628932123 86.58330387761576 121.51882794734219 H 0.0 **** 0.06
28390 H 71.91788163754609 86.51049241678834 120.09642637847304 H 0.0 **** 0.06
28391 C 8.766771476974043 91.28897462178335 73.07879850837914 C 0.0 **** -0.24
28392 H 8.801520668146736 91.74775420110092 74.06708314042838 H 0.0 **** 0.06
28393 H 9.781829138576995 91.16837051812051 72.69874408250885 H 0.0 **** 0.06
28394 H 8.198726986324516 91.92791111839159 72.4018506710962 H 0.0 **** 0.06
28395 H 8.285152503712254 90.31323293869097 73.14783528595392 H 0.0 **** 0.06
28396 C 51.432513567869165 99.48707352373617 117.2619422146953 C 0.0 **** -0.24
28397 H 51.925218672404824 99.99689865916851 116.43288804237602 H 0.0 **** 0.06
28398 H 50.56321552463629 100.06415007120988 117.57843758335397 H 0.0 **** 0.06
28399 H 52.129881606655516 99.39258723904673 118.09470382634086 H 0.0 **** 0.06
28400 H 51.11386225462826 98.49569714051665 116.93989266366577 H 0.0 **** 0.06
28401 C 34.76138077421217 6.654810044838911 32.124812555449665 C 0.0 **** -0.24
28402 H 34.30123821167848 7.012024750683906 33.04532714354691 H 0.0 **** 0.06
28403 H 35.696962782305945 6.146514311622894 32.36007944742713 H 0.0 **** 0.06
28404 H 34.96265730647963 7.500747997484581 31.467953044370226 H 0.0 **** 0.06
28405 H 34.08527400170033 5.960914220235082 31.626730385020664 H 0.0 **** 0.06
28406 C 50.493609883732375 9.133426469599222 102.88707308805175 C 0.0 **** -0.24
28407 H 50.034016901454976 9.603208567883538 103.75668034407633 H 0.0 **** 0.06
28408 H 51.53293329167877 8.891599670020987 103.11131270447943 H 0.0 **** 0.06
28409 H 50.45396284655098 9.819022429651842 102.04000281068504 H 0.0 **** 0.06
28410 H 49.95238664899898 8.21971811516456 102.63947419208932 H 0.0 **** 0.06
28411 C 39.1357267459432 101.43982287956125 49.80184216274145 C 0.0 **** -0.24
28412 H 38.53315453662023 101.55540092085691 48.90135722989501 H 0.0 **** 0.06
28413 H 38.92514444455216 102.26027859030808 50.487051743268125 H 0.0 **** 0.06
28414 H 40.192506334053036 101.45083783132705 49.53562371373491 H 0.0 **** 0.06
28415 H 38.89165861413451 100.49242677284941 50.28250948500951 H 0.0 **** 0.06
28416 C 78.67934147446863 103.48863524200783 1.238068878104455 C 0.0 **** -0.24
28417 H 77.97961859911345 102.87207413744252 0.6738747558200657 H 0.0 **** 0.06
28418 H 79.14917877056308 104.20885286825629 0.5686540852343356 H 0.0 **** 0.06
28419 H 79.44339410877564 102.85323562603227 1.6848916131339227 H 0.0 **** 0.06
28420 H 78.14247691079981 104.01953324863771 2.0247565540895547 H 0.0 **** 0.06
28421 C 22.014251812066703 109.46962446853979 77.81293783471284 C 0.0 **** -0.24
28422 H 22.577360684340945 109.6696632478421 76.90156602774732 H 0.0 **** 0.06
28423 H 21.734983353012737 110.41312501419856 78.28207061352214 H 0.0 **** 0.06
28424 H 22.62962911176698 108.88960836930903 78.50047604847941 H 0.0 **** 0.06
28425 H 21.114134301640533 108.90525825350983 77.5669459437272 H 0.0 **** 0.06
28426 C 26.839210554464216 29.022660174176295 44.1712073396036 C 0.0 **** -0.24
28427 H 27.90881214677833 28.893857868974536 44.339079747602284 H 0.0 **** 0.06
28428 H 26.408971248245734 29.59399192970824 44.994024388387004 H 0.0 **** 0.06
28429 H 26.360277480302102 28.04547830657617 44.116541358914276 H 0.0 **** 0.06
28430 H 26.680884984065415 29.557251046524073 43.23442810387007 H 0.0 **** 0.06
28431 C 68.61727287876893 77.24211257351016 55.1873351001978 C 0.0 **** -0.24
28432 H 69.51111457266988 76.63110938672588 55.06737359734568 H 0.0 **** 0.06
28433 H 68.90598113582043 78.26572281699671 55.425524743248644 H 0.0 **** 0.06
28434 H 68.00760260893738 76.83915002501583 55.99652734852293 H 0.0 **** 0.06
28435 H 68.04328359529592 77.23139835296493 54.260705065395996 H 0.0 **** 0.06
28436 C 3.0792687114585107 104.08808232738971 61.66795325958722 C 0.0 **** -0.24
28437 H 3.6262758182474073 103.2242397205311 62.043766785568465 H 0.0 **** 0.06
28438 H 2.1067057887231186 103.76778138531398 61.293235476663625 H 0.0 **** 0.06
28439 H 3.645108976593434 104.55378571099459 60.86096139468896 H 0.0 **** 0.06
28440 H 2.9386377337299763 104.8075616449699 62.47474391360626 H 0.0 **** 0.06
28441 C 28.444751955288893 27.60211847328008 56.65130076599618 C 0.0 **** -0.24
28442 H 28.284285461939852 26.802382682462316 57.37447908964228 H 0.0 **** 0.06
28443 H 29.40556064805798 27.457016032535044 56.15620813810018 H 0.0 **** 0.06
28444 H 28.441866080377217 28.562243932724662 57.166547735348956 H 0.0 **** 0.06
28445 H 27.64625674531863 27.58594489854388 55.90903359004024 H 0.0 **** 0.06
28446 C 112.44164480881986 105.38570391056572 94.23525614316557 C 0.0 **** -0.24
28447 H 111.95787281995698 104.58820678814726 94.79915746898628 H 0.0 **** 0.06
28448 H 112.4176294932139 105.14496106821446 93.17237004201205 H 0.0 **** 0.06
28449 H 113.4772210372681 105.48513954523281 94.561863221521 H 0.0 **** 0.06
28450 H 111.91385588484053 106.3245082406682 94.40763384014309 H 0.0 **** 0.06
28451 C 74.07518283584838 33.23618994857767 1.4509037115440666 C 0.0 **** -0.24
28452 H 73.88740571658099 33.55999695175651 2.4749811134497275 H 0.0 **** 0.06
28453 H 74.37266212268324 34.09443199356769 0.8472743177951294 H 0.0 **** 0.06
28454 H 73.16719737935333 32.797370727563795 1.036287199263949 H 0.0 **** 0.06
28455 H 74.87234481490543 32.49350646670628 1.44573875767834 H 0.0 **** 0.06
28456 C 87.41582185192377 36.12283378901166 47.759983789933614 C 0.0 **** -0.24
28457 H 87.17234031360157 35.59727363129952 46.83712306473353 H 0.0 **** 0.06
28458 H 86.91360295432382 35.63783505933507 48.59806505728554 H 0.0 **** 0.06
28459 H 87.08454842715149 37.15855503320502 47.68723002212191 H 0.0 **** 0.06
28460 H 88.49398248256817 36.09711431039128 47.919027448267826 H 0.0 **** 0.06
28461 C 49.54059290264402 2.5866672102924326 49.00593938326767 C 0.0 **** -0.24
28462 H 49.70068626896796 3.3763891180150836 49.739583778467136 H 0.0 **** 0.06
28463 H 49.16893138984392 1.6936770667859946 49.50838741642707 H 0.0 **** 0.06
28464 H 50.48252173738716 2.3585393673641306 48.50755053798747 H 0.0 **** 0.06
28465 H 48.81059660209138 2.9189895530673766 48.26813931131255 H 0.0 **** 0.06
28466 C 68.74613879997418 105.5594855836485 3.7723642921677936 C 0.0 **** -0.24
28467 H 68.11615500534663 104.75975133608708 4.162353115879455 H 0.0 **** 0.06
28468 H 68.89122790505428 105.41704062796364 2.701239965795793 H 0.0 **** 0.06
28469 H 69.71208491131142 105.53851045576928 4.276872822012621 H 0.0 **** 0.06
28470 H 68.26318099738035 106.52036701936774 3.9494386365484218 H 0.0 **** 0.06
28471 C 64.17843107474658 78.61355622966492 114.42118938686225 C 0.0 **** -0.24
28472 H 63.493170457174756 77.8623067152396 114.02961983199852 H 0.0 **** 0.06
28473 H 65.20413937236845 78.33217858051577 114.17913173436254 H 0.0 **** 0.06
28474 H 64.06552578803263 78.67879591196255 115.50375944613235 H 0.0 **** 0.06
28475 H 63.95189782781881 79.58098435568895 113.97365370672965 H 0.0 **** 0.06
28476 C 121.16282530175928 118.63659834749359 19.945361923636256 C 0.0 **** -0.24
28477 H 120.87848142855438 118.69561981228316 18.894159372718264 H 0.0 **** 0.06
28478 H 120.30752304459463 118.30606336604077 20.534528599388068 H 0.0 **** 0.06
28479 H 121.48507575444236 119.61855869438446 20.290085242900204 H 0.0 **** 0.06
28480 H 121.97937752076493 117.92467831956705 20.06020086909939 H 0.0 **** 0.06
28481 C 10.324453865516297 80.77311595959554 93.01908315627055 C 0.0 **** -0.24
28482 H 10.042026058585307 81.07711554560711 92.01080168231071 H 0.0 **** 0.06
28483 H 10.292762420613599 79.68545170307476 93.09284559387615 H 0.0 **** 0.06
28484 H 9.628181921167698 81.20627455389229 93.73718601676109 H 0.0 **** 0.06
28485 H 11.3339280014522 81.12299857420504 93.23416874692312 H 0.0 **** 0.06
28486 C 97.29803089878969 61.19065495191563 111.85762358976713 C 0.0 **** -0.24
28487 H 96.36090695798697 61.63835234205828 112.18922953061222 H 0.0 **** 0.06
28488 H 97.60146715484552 61.64154146604619 110.91319071480993 H 0.0 **** 0.06
28489 H 97.159443242956 60.11810619555945 111.72192418858633 H 0.0 **** 0.06
28490 H 98.06850509568909 61.36521124387275 112.60887144488863 H 0.0 **** 0.06
28491 C 30.236732696938674 69.56993544108587 60.73576085347945 C 0.0 **** -0.24
28492 H 29.17225344661035 69.55000333615772 60.96864134816151 H 0.0 **** 0.06
28493 H 30.412422237388235 69.04114741585394 59.798146221890136 H 0.0 **** 0.06
28494 H 30.79253015530569 69.08395465991828 61.53733527064341 H 0.0 **** 0.06
28495 H 30.567672148545135 70.60361046803266 60.638063896195604 H 0.0 **** 0.06
28496 C 13.295882692548616 115.04168395732705 73.02448123704242 C 0.0 **** -0.24
28497 H 13.012038742800058 116.01755735976256 72.63015467557253 H 0.0 **** 0.06
28498 H 13.570403166100846 115.1407237858663 74.07481515702639 H 0.0 **** 0.06
28499 H 14.145892048475702 114.656804239954 72.46105297638195 H 0.0 **** 0.06
28500 H 12.456102335762296 114.3534018206736 72.93084716283798 H 0.0 **** 0.06
28501 C 19.969066417708774 114.75640433391402 121.55185991586029 C 0.0 **** -0.24
28502 H 19.20143711005457 114.30121165878217 122.1773345825026 H 0.0 **** 0.06
28503 H 20.693253175805324 113.99842001578793 121.25522889999786 H 0.0 **** 0.06
28504 H 20.474562939596495 115.54303886929074 122.11167154499753 H 0.0 **** 0.06
28505 H 19.505384753978774 115.18441010460754 120.66274681017029 H 0.0 **** 0.06
28506 C 17.867746528636623 122.7318239689038 122.821981626417 C 0.0 **** -0.24
28507 H 16.947202521518896 122.1770455374068 123.005023592081 H 0.0 **** 0.06
28508 H 18.165888818614505 122.60665613572141 121.78125021401851 H 0.0 **** 0.06
28509 H 18.655207545169286 122.35394237593763 123.47436063961679 H 0.0 **** 0.06
28510 H 17.70174625082473 123.78916870269228 123.02823081348751 H 0.0 **** 0.06
28511 C 6.818467454617831 98.69888072859963 43.40389452048396 C 0.0 **** -0.24
28512 H 7.411818231279426 98.96079937807485 44.2795971828163 H 0.0 **** 0.06
28513 H 5.9243539893602986 98.16088051178343 43.719269849269836 H 0.0 **** 0.06
28514 H 7.4095693027935 98.06464876122718 42.74210512429238 H 0.0 **** 0.06
28515 H 6.529487634599661 99.60695676263299 42.875676540171696 H 0.0 **** 0.06
28516 C 45.18762379222737 53.983514720398816 118.29257714166343 C 0.0 **** -0.24
28517 H 46.139425433167496 53.53783569175731 118.00543172876606 H 0.0 **** 0.06
28518 H 45.11494284727211 54.01500009516681 119.3797684159389 H 0.0 **** 0.06
28519 H 44.370422662285264 53.385374960727404 117.89071174925937 H 0.0 **** 0.06
28520 H 45.126830912331606 54.996895177666374 117.89519318925531 H 0.0 **** 0.06
28521 C 111.97719555083545 12.070376262934253 117.06381945558574 C 0.0 **** -0.24
28522 H 111.89685861852966 11.02100835814755 117.34911006856908 H 0.0 **** 0.06
28523 H 112.83338554498242 12.519366569338644 117.56642074951523 H 0.0 **** 0.06
28524 H 111.06684890374187 12.595850452042896 117.35487038615211 H 0.0 **** 0.06
28525 H 112.10990415271337 12.143755989098505 115.98417480197908 H 0.0 **** 0.06
28526 C 61.183246571526354 94.93229925933443 83.77540221156517 C 0.0 **** -0.24
28527 H 60.938917893531084 93.92848986195824 83.42940388614414 H 0.0 **** 0.06
28528 H 62.2242579433983 94.96073337226039 84.10163170749126 H 0.0 **** 0.06
28529 H 60.534190180632436 95.19807085267686 84.6098205550291 H 0.0 **** 0.06
28530 H 61.03788737567521 95.64269501901285 82.9612355789236 H 0.0 **** 0.06
28531 C 123.86945221561642 27.289902199020332 123.67055181737922 C 0.0 **** -0.24
28532 H 124.29306230925116 27.672829445089604 122.74166648377684 H 0.0 **** 0.06
28533 H 124.66934814449323 26.901889267096152 124.30073127048851 H 0.0 **** 0.06
28534 H 123.16308612684786 26.4916562368941 123.44506571980818 H 0.0 **** 0.06
28535 H 123.35303989406799 28.095856535634823 124.19284836021959 H 0.0 **** 0.06
28536 C 70.77692276479802 90.40189115405462 83.99819792074936 C 0.0 **** -0.24
28537 H 71.39842673826854 91.28197426764734 84.16047601538608 H 0.0 **** 0.06
28538 H 70.55711466926768 89.93157366847367 84.95649670373044 H 0.0 **** 0.06
28539 H 71.306522883811 89.69507903141394 83.35950156221023 H 0.0 **** 0.06
28540 H 69.84562676784485 90.69893764868374 83.51631740167048 H 0.0 **** 0.06
28541 C 23.529678342723884 45.22650761107792 106.10563697292451 C 0.0 **** -0.24
28542 H 22.62280485835953 45.78724395471421 106.33052340355923 H 0.0 **** 0.06
28543 H 24.285112206234345 45.903075659987906 105.70445854874964 H 0.0 **** 0.06
28544 H 23.305164334982507 44.45454000468747 105.36903991503738 H 0.0 **** 0.06
28545 H 23.905308629910778 44.76113939684294 107.01682466504775 H 0.0 **** 0.06
28546 C 119.66843505468859 120.35335561637487 106.88705528819031 C 0.0 **** -0.24
28547 H 120.33998622943153 120.4375807124163 107.74094978527165 H 0.0 **** 0.06
28548 H 119.3003886856799 121.34250323309382 106.61475661922447 H 0.0 **** 0.06
28549 H 118.82662819794191 119.71227768802832 107.14846111206867 H 0.0 **** 0.06
28550 H 120.20613258097123 119.91956343359415 106.04342713092603 H 0.0 **** 0.06
28551 C 30.513042731402322 33.83081414262123 38.021785495635896 C 0.0 **** -0.24
28552 H 31.114456915604592 34.334158005419965 38.77823152607479 H 0.0 **** 0.06
28553 H 31.064129806151584 32.97677505659348 37.628524815075906 H 0.0 **** 0.06
28554 H 30.29233560343647 34.52577270065115 37.21109584111724 H 0.0 **** 0.06
28555 H 29.580537252659667 33.48661660724878 38.46859000857265 H 0.0 **** 0.06
28556 C 121.07532223424795 59.123877512196145 22.857630021347177 C 0.0 **** -0.24
28557 H 120.52633585223775 58.55096656174001 22.11038394659255 H 0.0 **** 0.06
28558 H 120.68650857794802 58.89367382409972 23.850397868575087 H 0.0 **** 0.06
28559 H 120.95440415926777 60.188790934486235 22.658715627682398 H 0.0 **** 0.06
28560 H 122.13229289606004 58.863473333388896 22.811064577467704 H 0.0 **** 0.06
28561 C 122.58951014697465 98.4118405528814 0.7690653736342483 C 0.0 **** -0.24
28562 H 122.30974815318928 99.17493105585568 1.4969032245155063 H 0.0 **** 0.06
28563 H 121.72017388026575 98.15101851358762 0.16533527258107483 H 0.0 **** 0.06
28564 H 122.949381929134 97.5262748016559 1.2922740073954913 H 0.0 **** 0.06
28565 H 123.37837218016858 98.79797174711656 0.1239482739551363 H 0.0 **** 0.06
28566 C 111.28387578713941 74.61902197463439 113.62671151428745 C 0.0 **** -0.24
28567 H 111.88603146727887 73.78359260499693 113.26838337303869 H 0.0 **** 0.06
28568 H 111.13326653594544 75.33136851856767 112.81616607548409 H 0.0 **** 0.06
28569 H 111.79974281679098 75.11049918077322 114.45174853415864 H 0.0 **** 0.06
28570 H 110.31792409428918 74.24894947731369 113.9707658650471 H 0.0 **** 0.06
28571 C 35.5189332227662 46.801382822726794 25.205800822379928 C 0.0 **** -0.24
28572 H 35.26349907182596 46.09361085972438 24.41643271202011 H 0.0 **** 0.06
28573 H 36.577384237245596 47.052102590251764 25.13984080059504 H 0.0 **** 0.06
28574 H 35.31069441325152 46.352924573143184 26.176712482863024 H 0.0 **** 0.06
28575 H 34.92191575234001 47.7056462145934 25.088112427687037 H 0.0 **** 0.06
28576 C 1.063821802485677 105.50447536997316 11.702240543371062 C 0.0 **** -0.24
28577 H 1.3899764824769676 105.61497961360801 12.736244714141037 H 0.0 **** 0.06
28578 H 1.5307835149256022 106.27779018559279 11.090220283841887 H 0.0 **** 0.06
28579 H -0.020194797728123604 105.60559572032416 11.650787799171667 H 0.0 **** 0.06
28580 H 1.355692877559818 104.52253373247468 11.331976425637492 H 0.0 **** 0.06
28581 C 62.906807850945256 88.21029769065211 33.65135555230424 C 0.0 **** -0.24
28582 H 63.26757802586789 87.30671142827606 34.14293918079099 H 0.0 **** 0.06
28583 H 63.049415720769844 88.11902253964661 32.57369992474328 H 0.0 **** 0.06
28584 H 63.462751968380786 89.07136516109153 34.02027231353043 H 0.0 **** 0.06
28585 H 61.846267589875225 88.34161855127294 33.86787791739829 H 0.0 **** 0.06
28586 C 113.21021701644639 53.72135715993798 16.816663901021826 C 0.0 **** -0.24
28587 H 113.25470945249276 52.632874111884405 16.85423767937243 H 0.0 **** 0.06
28588 H 113.6017479606441 54.133559610551885 17.746832909121935 H 0.0 **** 0.06
28589 H 112.17590265103777 54.038001523075195 16.68534822955013 H 0.0 **** 0.06
28590 H 113.80911966673239 54.08028177711486 15.97917868675944 H 0.0 **** 0.06
28591 C 89.84600432147185 113.87833986441558 123.07346495042319 C 0.0 **** -0.24
28592 H 90.84806153386614 113.45015091709179 123.03517239294673 H 0.0 **** 0.06
28593 H 89.89863704836603 114.8902882138061 123.47354616149782 H 0.0 **** 0.06
28594 H 89.21353039366412 113.26490000270627 123.71492964783343 H 0.0 **** 0.06
28595 H 89.42606402779593 113.90590968156927 122.06812185122702 H 0.0 **** 0.06
28596 C 53.88425555887227 17.19098718936732 118.07094420167664 C 0.0 **** -0.24
28597 H 53.671297843656646 16.273114287372067 117.52334303909042 H 0.0 **** 0.06
28598 H 54.95813628255894 17.275558973450387 118.23582137545607 H 0.0 **** 0.06
28599 H 53.36941539253547 17.168302621696512 119.03163600558646 H 0.0 **** 0.06
28600 H 53.53692606683455 18.04729580306153 117.49356092801833 H 0.0 **** 0.06
28601 C 30.23444481790346 26.63775413028995 15.884562938446038 C 0.0 **** -0.24
28602 H 30.331915563204397 26.029536649645678 16.78439220656969 H 0.0 **** 0.06
28603 H 29.179147353525487 26.815798048601124 15.679252685796541 H 0.0 **** 0.06
28604 H 30.685323013717557 26.113115001655757 15.041350378262734 H 0.0 **** 0.06
28605 H 30.742711497830378 27.59010129293202 16.0336855077189 H 0.0 **** 0.06
28606 C 95.08411273309852 2.2170681238628163 62.77658335825579 C 0.0 **** -0.24
28607 H 94.35543185100875 1.469113270034697 63.09110121435046 H 0.0 **** 0.06
28608 H 94.66367877392338 3.213279776823015 62.91342752593539 H 0.0 **** 0.06
28609 H 95.32714854212014 2.065718727668866 61.724534547986906 H 0.0 **** 0.06
28610 H 95.98861828930842 2.1172813094101457 63.376786665316445 H 0.0 **** 0.06
28611 C 80.88909685598301 3.08847932889924 111.56652465564483 C 0.0 **** -0.24
28612 H 80.77812467245494 3.5065107480421744 110.56588504662002 H 0.0 **** 0.06
28613 H 81.93434541996393 2.831002940272896 111.7385800945419 H 0.0 **** 0.06
28614 H 80.27419880035404 2.192133001212653 111.65522876448193 H 0.0 **** 0.06
28615 H 80.56815552015101 3.8233617065538255 112.30508899279167 H 0.0 **** 0.06
28616 C 86.02661010550662 85.57341804919399 7.428978538397118 C 0.0 **** -0.24
28617 H 85.50519501470902 86.08072223757347 8.241437482550651 H 0.0 **** 0.06
28618 H 85.34869741857686 85.44895978805144 6.584458410651052 H 0.0 **** 0.06
28619 H 86.36698155566684 84.59571141877312 7.77062564926571 H 0.0 **** 0.06
28620 H 86.88522990935408 86.16992339168613 7.121176493144873 H 0.0 **** 0.06
28621 C 119.24393348827046 109.52202619228659 11.562717933880137 C 0.0 **** -0.24
28622 H 120.21965290633625 109.08142116419104 11.768323262871363 H 0.0 **** 0.06
28623 H 119.0925532727803 110.38637947117829 12.20923718473076 H 0.0 **** 0.06
28624 H 118.46481395868032 108.78406146323957 11.752532316972548 H 0.0 **** 0.06
28625 H 119.20079108138492 109.83669463497957 10.51891319424881 H 0.0 **** 0.06
28626 C 27.016384716936443 63.830510925710996 62.2068566349069 C 0.0 **** -0.24
28627 H 26.698321649737295 63.82389625238167 63.25003442872338 H 0.0 **** 0.06
28628 H 26.23440861991628 64.27814944481781 61.59235934402659 H 0.0 **** 0.06
28629 H 27.19912330115619 62.80840024850528 61.87594871160911 H 0.0 **** 0.06
28630 H 27.932711207828504 64.4132896550233 62.110174422215266 H 0.0 **** 0.06
28631 C 10.625005682991034 9.849291914450731 64.36423970853424 C 0.0 **** -0.24
28632 H 11.60013917702534 10.0489384376597 63.92155972596716 H 0.0 **** 0.06
28633 H 10.351286704868105 10.672193739767465 65.02554393824495 H 0.0 **** 0.06
28634 H 10.668729968644023 8.922301002896418 64.93725351502809 H 0.0 **** 0.06
28635 H 9.87918209719944 9.753288008367562 63.574910779760614 H 0.0 **** 0.06
28636 C 113.23643641071283 101.21783112702133 21.11417244475487 C 0.0 **** -0.24
28637 H 113.8190758899388 101.6988282833284 21.89997565884005 H 0.0 **** 0.06
28638 H 113.08072294047048 100.16879801706438 21.36782694932674 H 0.0 **** 0.06
28639 H 113.77457718958078 101.28687548685218 20.168166551947508 H 0.0 **** 0.06
28640 H 112.27136962286158 101.71682272084041 21.020720618905386 H 0.0 **** 0.06
28641 C 32.86088882851702 96.56723764327288 115.91484924715957 C 0.0 **** -0.24
28642 H 33.26019560090816 96.46711074170247 114.9053377623161 H 0.0 **** 0.06
28643 H 32.818785979645924 97.62344727920893 116.18531993135656 H 0.0 **** 0.06
28644 H 33.50770359784829 96.0391073943808 116.61514617006048 H 0.0 **** 0.06
28645 H 31.85825886549803 96.14211378096746 115.95332693575546 H 0.0 **** 0.06
28646 C 51.584932742953896 82.31853494585629 76.48488016203508 C 0.0 **** -0.24
28647 H 52.37528301944192 82.03351519403324 75.79017237427321 H 0.0 **** 0.06
28648 H 51.28480929519506 83.34742331912523 76.29099297660522 H 0.0 **** 0.06
28649 H 51.952215684289484 82.23235311145561 77.50743658154663 H 0.0 **** 0.06
28650 H 50.727331843452845 81.65809485751964 76.34973064583602 H 0.0 **** 0.06
28651 C 73.55548812236808 29.89110263119985 21.31124585947981 C 0.0 **** -0.24
28652 H 73.92681659196566 28.93338332853265 20.94624363394371 H 0.0 **** 0.06
28653 H 73.72466268495526 30.657804508388324 20.55575008918032 H 0.0 **** 0.06
28654 H 74.0834660703166 30.15999392260538 22.226498011436036 H 0.0 **** 0.06
28655 H 72.48790189952706 29.811609247498964 21.517251167685515 H 0.0 **** 0.06
28656 C 43.0385577352057 81.14329536646093 114.95924786897163 C 0.0 **** -0.24
28657 H 43.42032264110703 82.02545651313594 114.44602575855481 H 0.0 **** 0.06
28658 H 43.19495553099487 81.25101120268025 116.03301916019463 H 0.0 **** 0.06
28659 H 43.56530861366379 80.25825006453752 114.60220299684653 H 0.0 **** 0.06
28660 H 41.97219046379657 81.038517492137 114.7566837982582 H 0.0 **** 0.06
28661 C 4.213178980272829 99.71439759250572 65.25466646701535 C 0.0 **** -0.24
28662 H 3.9739272973655204 98.65522716212027 65.15617090734666 H 0.0 **** 0.06
28663 H 3.735603308282208 100.11284120384542 66.15042588401117 H 0.0 **** 0.06
28664 H 3.850515039382003 100.25205311445879 64.37927052849774 H 0.0 **** 0.06
28665 H 5.293432375292781 99.83606784606644 65.33347415360461 H 0.0 **** 0.06
28666 C 42.75164054891909 104.68079623843066 51.60440548126118 C 0.0 **** -0.24
28667 H 42.63481898277243 105.02535916156249 52.6317665700565 H 0.0 **** 0.06
28668 H 42.000773976089164 105.15828142613582 50.97419834226383 H 0.0 **** 0.06
28669 H 42.62271428138255 103.59907300905562 51.56691438456713 H 0.0 **** 0.06
28670 H 43.746397119274775 104.94158808080734 51.245291846510696 H 0.0 **** 0.06
28671 C 105.76000901063308 92.58420286920588 53.553309051732285 C 0.0 **** -0.24
28672 H 105.96478740273739 92.64469759020785 54.62252836721501 H 0.0 **** 0.06
28673 H 105.48616258913776 93.57103546176496 53.180375721995475 H 0.0 **** 0.06
28674 H 104.93996392261366 91.88764923669741 53.3797470147461 H 0.0 **** 0.06
28675 H 106.65111419008724 92.23391904372761 53.033191310982545 H 0.0 **** 0.06
28676 C 119.44531689963912 7.2287265130003675 104.31146312135392 C 0.0 **** -0.24
28677 H 118.48269542027325 6.777448953183097 104.54997121125031 H 0.0 **** 0.06
28678 H 119.74914093165415 6.9267696192926 103.30870455233757 H 0.0 **** 0.06
28679 H 120.19143978329097 6.8957024631530714 105.03322233001057 H 0.0 **** 0.06
28680 H 119.3576931263739 8.31404888144661 104.35293716337512 H 0.0 **** 0.06
28681 C 97.32928565123555 42.06396543598913 12.838206554204632 C 0.0 **** -0.24
28682 H 96.64442172961785 42.88504642414347 13.049197328495062 H 0.0 **** 0.06
28683 H 96.94484987630872 41.475502882967874 12.003857239383962 H 0.0 **** 0.06
28684 H 97.41745195347195 41.42863185662685 13.719657442178868 H 0.0 **** 0.06
28685 H 98.30898608130812 42.46497593661809 12.579911544938543 H 0.0 **** 0.06
28686 C 104.03534077941481 14.068527454230491 49.83093351044085 C 0.0 **** -0.24
28687 H 104.89281678388429 14.48833562251454 49.30514676393754 H 0.0 **** 0.06
28688 H 103.72945192991202 13.141786944709281 49.34427160657895 H 0.0 **** 0.06
28689 H 103.21086846270836 14.780770208375344 49.80770987157074 H 0.0 **** 0.06
28690 H 104.30928100122344 13.861611987661092 50.866048246549816 H 0.0 **** 0.06
28691 C 12.348567528702858 3.153632176171328 70.37371426898517 C 0.0 **** -0.24
28692 H 11.760117002235972 3.2264413818611217 71.28836584623502 H 0.0 **** 0.06
28693 H 12.507222459836242 4.150851407366758 69.96303174655975 H 0.0 **** 0.06
28694 H 11.815224945686325 2.5409348616101965 69.64598254027737 H 0.0 **** 0.06
28695 H 13.312250274855003 2.695467829797167 70.59738083243633 H 0.0 **** 0.06
28696 C 15.926719508604748 113.69992581953127 2.826154798960639 C 0.0 **** -0.24
28697 H 15.836072778539261 114.22717852996414 1.8768300807214295 H 0.0 **** 0.06
28698 H 16.74192752688768 112.97853194912483 2.763748719381244 H 0.0 **** 0.06
28699 H 14.99540161946004 113.17823471607682 3.043028046927443 H 0.0 **** 0.06
28700 H 16.134945436985277 114.41641221736529 3.620369429000746 H 0.0 **** 0.06
28701 C 46.301899455094656 2.0664442822983062 108.4978366098544 C 0.0 **** -0.24
28702 H 46.19238744473307 2.7518064698097646 109.33801722888148 H 0.0 **** 0.06
28703 H 47.0741851160293 1.3317333550158708 108.72763536571875 H 0.0 **** 0.06
28704 H 46.58520893605595 2.626005261315015 107.60706341276722 H 0.0 **** 0.06
28705 H 45.35549771682935 1.5561486338946793 108.32105774628735 H 0.0 **** 0.06
28706 C 32.501397140685356 97.97403045937239 42.70083755935374 C 0.0 **** -0.24
28707 H 33.346234298760535 98.21942023174859 42.057882892970134 H 0.0 **** 0.06
28708 H 32.52915089982798 96.91348836780327 42.94831450008632 H 0.0 **** 0.06
28709 H 31.57051559074916 98.2024334992837 42.17939587243039 H 0.0 **** 0.06
28710 H 32.55830237030813 98.56330757198128 43.61645649002933 H 0.0 **** 0.06
28711 C 53.455229560854846 111.54314086726271 70.43919323357761 C 0.0 **** -0.24
28712 H 53.77260006126956 111.29067190506237 71.45114635389066 H 0.0 **** 0.06
28713 H 53.408042058825686 112.62766990474674 70.33349132242333 H 0.0 **** 0.06
28714 H 52.47031092975584 111.1162769309004 70.25115293992089 H 0.0 **** 0.06
28715 H 54.17022295596425 111.1387363773064 69.7230576779438 H 0.0 **** 0.06
28716 C 27.937763359704945 61.776675598677116 40.053714677524965 C 0.0 **** -0.24
28717 H 28.352900968733195 61.49966479647128 39.085706216039796 H 0.0 **** 0.06
28718 H 28.74274257969404 61.85470286322115 40.785174151872525 H 0.0 **** 0.06
28719 H 27.226857652684544 61.01540448720388 40.37570241662644 H 0.0 **** 0.06
28720 H 27.427948457467153 62.7368577521726 39.969069806803304 H 0.0 **** 0.06
28721 C 102.69570588830678 35.718681127506215 64.36070074606778 C 0.0 **** -0.24
28722 H 102.20994880684384 34.77365462514081 64.11816484845338 H 0.0 **** 0.06
28723 H 102.7171306291742 36.35452398419437 63.474834715101 H 0.0 **** 0.06
28724 H 103.71572576801985 35.52666550904593 64.69519620650837 H 0.0 **** 0.06
28725 H 102.14178503698292 36.2181851781678 65.1546806121045 H 0.0 **** 0.06
28726 C 16.332833612439742 114.91180470151278 49.89612078419883 C 0.0 **** -0.24
28727 H 16.32570842965808 115.76350847403125 50.577428133793504 H 0.0 **** 0.06
28728 H 16.038446424949186 114.01238063476113 50.437690062452475 H 0.0 **** 0.06
28729 H 17.335715970376356 114.78102137024126 49.490386424008584 H 0.0 **** 0.06
28730 H 15.631598643866141 115.09241494147435 49.08153674546619 H 0.0 **** 0.06
28731 C 4.705477603383645 47.667653502363834 73.31098802677128 C 0.0 **** -0.24
28732 H 4.3520911687884904 48.106238212910085 74.2449747853848 H 0.0 **** 0.06
28733 H 5.601052032394179 48.19304734575067 72.97945755568524 H 0.0 **** 0.06
28734 H 3.9284880083224465 47.75810628330754 72.55082734744451 H 0.0 **** 0.06
28735 H 4.937787845067824 46.61531770942625 73.4702424287689 H 0.0 **** 0.06
28736 C 69.75969882706056 118.2814412251974 98.18579700830867 C 0.0 **** -0.24
28737 H 68.84550755127503 118.59438909431279 98.68949395241393 H 0.0 **** 0.06
28738 H 70.55831378330132 118.17027862476544 98.91979140697197 H 0.0 **** 0.06
28739 H 70.04434141597778 119.03349560940168 97.4501418646501 H 0.0 **** 0.06
28740 H 69.59026482919501 117.32841621245507 97.68420935218813 H 0.0 **** 0.06
28741 C 82.13150795424916 30.95993447034742 9.867959986136157 C 0.0 **** -0.24
28742 H 82.1335058880244 31.988570292504875 10.226367544014124 H 0.0 **** 0.06
28743 H 81.80412373238907 30.938919403610633 8.828037057861422 H 0.0 **** 0.06
28744 H 81.45094826865017 30.364397177715972 10.476416682578417 H 0.0 **** 0.06
28745 H 83.1382762558837 30.547742676071238 9.940460005766454 H 0.0 **** 0.06
28746 C 59.63161325114177 97.91115099276442 26.68296373016358 C 0.0 **** -0.24
28747 H 60.6458412544865 97.54754393704195 26.518017763579678 H 0.0 **** 0.06
28748 H 59.49164000101831 98.85188085033724 26.15126504982021 H 0.0 **** 0.06
28749 H 59.47143420723617 98.06832202200383 27.749886726330715 H 0.0 **** 0.06
28750 H 58.916941434722446 97.17463090413389 26.31351529382539 H 0.0 **** 0.06
28751 C 79.2248218630175 68.58071700653596 15.567214083615312 C 0.0 **** -0.24
28752 H 79.94436871216212 69.11960242115788 14.952129974309685 H 0.0 **** 0.06
28753 H 79.4599088100553 67.51641679018178 15.5540654073518 H 0.0 **** 0.06
28754 H 78.22065903314326 68.73677672238477 15.17214178697725 H 0.0 **** 0.06
28755 H 79.27272554838426 68.95135930714491 16.591356775034313 H 0.0 **** 0.06
28756 C 97.22270340744116 68.3105751546216 46.36126589585757 C 0.0 **** -0.24
28757 H 96.74071921134882 68.22298878458949 47.33542841629963 H 0.0 **** 0.06
28758 H 97.67233944247802 69.29904836558137 46.26674680391437 H 0.0 **** 0.06
28759 H 96.4803171824875 68.17072831411559 45.57552913339502 H 0.0 **** 0.06
28760 H 97.99638769966298 67.54860463895476 46.26981521707772 H 0.0 **** 0.06
28761 C 97.90697997642906 42.193988758214516 82.29762733989594 C 0.0 **** -0.24
28762 H 98.45370292298531 42.22270864485023 83.24102650372171 H 0.0 **** 0.06
28763 H 98.61426600020343 42.126041182624306 81.47150490696433 H 0.0 **** 0.06
28764 H 97.31166284958627 43.101340569813146 82.19450155524058 H 0.0 **** 0.06
28765 H 97.24891863488921 41.32419674635673 82.28627303498664 H 0.0 **** 0.06
28766 C 26.814749987027568 90.60995006667272 119.94945575381814 C 0.0 **** -0.24
28767 H 26.639099186649617 89.63137530274066 119.5022097861355 H 0.0 **** 0.06
28768 H 27.029525945340808 91.33535605310882 119.16426520966837 H 0.0 **** 0.06
28769 H 27.662649410113062 90.55037263659864 120.63146072375281 H 0.0 **** 0.06
28770 H 25.926812935576237 90.92164033830055 120.49965815766458 H 0.0 **** 0.06
28771 C 86.11222573477082 39.67059486340227 75.06734466597524 C 0.0 **** -0.24
28772 H 86.16228590255132 38.675631321145175 74.6248119027783 H 0.0 **** 0.06
28773 H 86.577108116729 39.65225119623426 76.05376326951901 H 0.0 **** 0.06
28774 H 85.06972832488502 39.974738474090216 75.16203115124887 H 0.0 **** 0.06
28775 H 86.64132005674065 40.37816987711095 74.42909902525412 H 0.0 **** 0.06
28776 C 17.903972346359126 79.97362323255592 107.70192117217323 C 0.0 **** -0.24
28777 H 17.218392809567433 79.48752483972874 108.39663104169486 H 0.0 **** 0.06
28778 H 18.93128066268406 79.78237532406878 108.01430498078167 H 0.0 **** 0.06
28779 H 17.71797563835912 81.04725648154393 107.69979169876851 H 0.0 **** 0.06
28780 H 17.748119131003932 79.57531483564532 106.69994021471648 H 0.0 **** 0.06
28781 C 84.52319861085687 12.453847060732187 75.23066411620736 C 0.0 **** -0.24
28782 H 83.7165135316493 13.18055384528725 75.126812196749 H 0.0 **** 0.06
28783 H 84.52392505458585 11.787080371354904 74.36880547207105 H 0.0 **** 0.06
28784 H 84.37343196248332 11.874272400390822 76.1407085031532 H 0.0 **** 0.06
28785 H 85.47749886174043 12.977937093235738 75.28598493573064 H 0.0 **** 0.06
28786 C 74.37612877698888 116.0174194165843 49.8047544145829 C 0.0 **** -0.24
28787 H 74.49333932043386 115.92867980808653 50.88469036881476 H 0.0 **** 0.06
28788 H 74.46324305372949 117.06536808796967 49.51557028248599 H 0.0 **** 0.06
28789 H 73.39672840748045 115.63964181430363 49.51310282884764 H 0.0 **** 0.06
28790 H 75.15269768810613 115.43740563900676 49.30698096645648 H 0.0 **** 0.06
28791 C 9.657589606801253 68.34881634956295 73.94168693677048 C 0.0 **** -0.24
28792 H 10.382464501677873 69.13207526010122 74.16427757764293 H 0.0 **** 0.06
28793 H 9.53984138684541 67.70453071760055 74.81271165748345 H 0.0 **** 0.06
28794 H 10.010530874833307 67.75644739957545 73.09644360368804 H 0.0 **** 0.06
28795 H 8.698391656361707 68.80204412320991 73.69152182771657 H 0.0 **** 0.06
28796 C 66.08540960234629 76.258813995251 70.3648415302637 C 0.0 **** -0.24
28797 H 66.85087715032367 76.85807002998955 70.85738322433312 H 0.0 **** 0.06
28798 H 66.39795022668608 75.2152264523414 70.34686792061154 H 0.0 **** 0.06
28799 H 65.94728783547993 76.61545623157654 69.3439686593172 H 0.0 **** 0.06
28800 H 65.14612857677801 76.34887611937216 70.91120470359846 H 0.0 **** 0.06
28801 C 26.47997805495004 39.07347436112195 48.70004771036281 C 0.0 **** -0.24
28802 H 26.389215475372254 38.482707493157704 49.61138428458583 H 0.0 **** 0.06
28803 H 26.14001459320957 38.48232853280797 47.848103869469654 H 0.0 **** 0.06
28804 H 27.52194373403401 39.35743214873173 48.55322062243336 H 0.0 **** 0.06
28805 H 25.867865255894685 39.97123548892455 48.785998758112946 H 0.0 **** 0.06
28806 C 112.69861848343413 16.04323586304571 5.561264512706586 C 0.0 **** -0.24
28807 H 113.37210668536073 15.337332003021913 6.047888721749246 H 0.0 **** 0.06
28808 H 112.58644076729993 15.773254112723919 4.510478234130034 H 0.0 **** 0.06
28809 H 113.10960814760816 17.04947047152558 5.63634486754556 H 0.0 **** 0.06
28810 H 111.72522702444408 16.010751913644867 6.050847575031739 H 0.0 **** 0.06
28811 C 50.1890204639833 34.52130664978492 29.558404661531142 C 0.0 **** -0.24
28812 H 51.25260588596501 34.32410967681467 29.426309690298524 H 0.0 **** 0.06
28813 H 49.79814556839864 33.88892966188759 30.355658622772978 H 0.0 **** 0.06
28814 H 49.66140634809727 34.30348593761623 28.629770614399945 H 0.0 **** 0.06
28815 H 50.044165211114034 35.56978690029833 29.820217317068852 H 0.0 **** 0.06
28816 C 26.327673967743664 20.766847812654476 118.16802739390434 C 0.0 **** -0.24
28817 H 25.329398196680046 20.887336824395334 118.58798519455098 H 0.0 **** 0.06
28818 H 26.521332286140108 21.5697339731949 117.45666603753648 H 0.0 **** 0.06
28819 H 26.394084086640618 19.80538344144344 117.65832680164459 H 0.0 **** 0.06
28820 H 27.065881301513826 20.804937011584343 118.96913154188525 H 0.0 **** 0.06
28821 C 73.24483398840312 119.2137507399097 14.313356596078776 C 0.0 **** -0.24
28822 H 74.22941523268237 119.21594342620074 14.779962018496477 H 0.0 **** 0.06
28823 H 73.14049681600589 118.32587125662602 13.690305677224924 H 0.0 **** 0.06
28824 H 73.13341778788296 120.10586911237196 13.696256927975497 H 0.0 **** 0.06
28825 H 72.47587914350784 119.20866951130893 15.086501075824852 H 0.0 **** 0.06
28826 C 20.05661971819883 15.872566976565821 33.9630099877852 C 0.0 **** -0.24
28827 H 20.98906602327871 15.41275377235587 34.293511909718774 H 0.0 **** 0.06
28828 H 20.203078119129188 16.946540714113297 33.84841919642031 H 0.0 **** 0.06
28829 H 19.278650754521447 15.688465422990276 34.70421214538507 H 0.0 **** 0.06
28830 H 19.758319822860052 15.442240056342726 33.007304180041515 H 0.0 **** 0.06
28831 C 97.06008999528407 112.88941300829424 27.52670891169479 C 0.0 **** -0.24
28832 H 96.0416333301797 113.18919952026744 27.27924822882688 H 0.0 **** 0.06
28833 H 97.75494560730661 113.66834670740928 27.210823260615484 H 0.0 **** 0.06
28834 H 97.29987695469441 111.95780960135914 27.012887850774327 H 0.0 **** 0.06
28835 H 97.14378919417427 112.74186931027225 28.60297930353127 H 0.0 **** 0.06
28836 C 56.58793311418495 64.70925930354885 3.978216867775572 C 0.0 **** -0.24
28837 H 56.806114391866515 63.737621518174066 3.536046535604399 H 0.0 **** 0.06
28838 H 55.53219265591683 64.94341414740798 3.8395073487756832 H 0.0 **** 0.06
28839 H 57.19626501362339 65.47390605477068 3.494496507336919 H 0.0 **** 0.06
28840 H 56.81719076686157 64.68335769224454 5.044002867577277 H 0.0 **** 0.06
28841 C 25.594819184216533 117.97305651633881 5.16602884218581 C 0.0 **** -0.24
28842 H 26.351367942967954 117.33065805887405 4.716153450027402 H 0.0 **** 0.06
28843 H 24.78957852318493 117.35806762668119 5.569945838671991 H 0.0 **** 0.06
28844 H 25.192917581254093 118.64565362102985 4.408271662315272 H 0.0 **** 0.06
28845 H 26.043882298438007 118.55704729121105 5.968323494415344 H 0.0 **** 0.06
28846 C 28.008330058704757 71.66516168719184 36.52686247872241 C 0.0 **** -0.24
28847 H 28.36470581999049 70.64102030188533 36.411521661451104 H 0.0 **** 0.06
28848 H 27.06785968689718 71.66232895627704 37.07713161180067 H 0.0 **** 0.06
28849 H 27.853168279039323 72.107858481752 35.54241637273843 H 0.0 **** 0.06
28850 H 28.74930686966036 72.24757367140236 37.07449315342501 H 0.0 **** 0.06
28851 C 45.88781422854453 114.95296959429582 47.76954118566127 C 0.0 **** -0.24
28852 H 45.93592623374826 114.25135953008056 48.60170595566382 H 0.0 **** 0.06
28853 H 44.85245614380182 115.06362862271732 47.44718125606806 H 0.0 **** 0.06
28854 H 46.488730927346296 114.57652058863081 46.94153454874501 H 0.0 **** 0.06
28855 H 46.275384205938906 115.92104711885672 48.08778819088295 H 0.0 **** 0.06
28856 C 44.26605026811373 50.0740520875616 65.54402097781299 C 0.0 **** -0.24
28857 H 44.938985760826824 50.17014226721912 64.69131161036374 H 0.0 **** 0.06
28858 H 44.695990433685466 49.384583814459205 66.27036706950992 H 0.0 **** 0.06
28859 H 43.30262826742202 49.69263319198396 65.20524760327719 H 0.0 **** 0.06
28860 H 44.12735301473052 51.050955654522824 66.00816238752643 H 0.0 **** 0.06
28861 C 88.74547216957033 103.28742571731271 95.71012661540007 C 0.0 **** -0.24
28862 H 88.20006079302848 104.09760861014547 95.2252432637425 H 0.0 **** 0.06
28863 H 89.78737932154387 103.307705036389 95.38880434197696 H 0.0 **** 0.06
28864 H 88.29878742897878 102.33264310530393 95.43454621214559 H 0.0 **** 0.06
28865 H 88.69547382285309 103.4141787150241 96.79213105816527 H 0.0 **** 0.06
28866 C 2.201133425410301 85.75364062573537 86.7729665577362 C 0.0 **** -0.24
28867 H 2.7017179974730237 85.64842478196604 85.81018182234655 H 0.0 **** 0.06
28868 H 2.9443800001808764 85.92191107269562 87.5526115527621 H 0.0 **** 0.06
28869 H 1.6418398723360657 84.84397259413483 86.99300640435419 H 0.0 **** 0.06
28870 H 1.515758235600785 86.60108059098583 86.73528199182451 H 0.0 **** 0.06
28871 C 68.4006592538116 67.60629870092498 63.85844198284542 C 0.0 **** -0.24
28872 H 68.60083366412377 68.47153261785093 64.4918638636893 H 0.0 **** 0.06
28873 H 69.32816650281347 67.27561897653479 63.39139282987429 H 0.0 **** 0.06
28874 H 67.68175112696318 67.88080097182382 63.08578334323664 H 0.0 **** 0.06
28875 H 67.99001897576179 66.80023892870955 64.46596719010384 H 0.0 **** 0.06
28876 C 87.28146899034431 42.94664902302924 40.090022491851016 C 0.0 **** -0.24
28877 H 86.64804787774966 43.72549901437526 40.51330494237985 H 0.0 **** 0.06
28878 H 86.65971725879797 42.123229124296216 39.73963396127917 H 0.0 **** 0.06
28879 H 87.96918794109604 42.58306363646764 40.853923696450494 H 0.0 **** 0.06
28880 H 87.85011162477258 43.35471217207376 39.25511910516704 H 0.0 **** 0.06
28881 C 111.11019821340184 38.111169262794675 101.79901716967646 C 0.0 **** -0.24
28882 H 112.14447379160292 38.259024296905004 101.49089131892572 H 0.0 **** 0.06
28883 H 110.50490974554458 38.95128779312093 101.45670225648931 H 0.0 **** 0.06
28884 H 111.06024545675865 38.04691252204751 102.88656191304204 H 0.0 **** 0.06
28885 H 110.7300650446338 37.18742013902673 101.36358405129863 H 0.0 **** 0.06
28886 C 33.24059341109292 111.06900239802249 105.48082715093217 C 0.0 **** -0.24
28887 H 33.39291408034141 112.03629246936684 105.00015352466741 H 0.0 **** 0.06
28888 H 33.38845665696468 111.17103872857334 106.55587587056903 H 0.0 **** 0.06
28889 H 33.95467509940532 110.34906215349541 105.08202137201279 H 0.0 **** 0.06
28890 H 32.22607583219087 110.72211642499738 105.28395936984384 H 0.0 **** 0.06
28891 C 120.96173688664194 100.7668109123952 90.27397801424263 C 0.0 **** -0.24
28892 H 121.62150907309388 99.9285378330629 90.49886829626485 H 0.0 **** 0.06
28893 H 121.16434068290579 101.58442795463189 90.96622566928978 H 0.0 **** 0.06
28894 H 119.92406112008132 100.45033641824585 90.37955549086392 H 0.0 **** 0.06
28895 H 121.13621447446306 101.10349269351977 89.25232218739413 H 0.0 **** 0.06
28896 C 92.82502393393526 46.2632241293246 19.080948052237318 C 0.0 **** -0.24
28897 H 93.29161439089683 45.32624651688275 18.776546973762265 H 0.0 **** 0.06
28898 H 92.73349307002354 46.92096786041921 18.215890795184663 H 0.0 **** 0.06
28899 H 93.43980801209688 46.7441646096822 19.840952284168793 H 0.0 **** 0.06
28900 H 91.83506570022314 46.058577331099514 19.489243432290948 H 0.0 **** 0.06
28901 C 86.3194685680138 1.725307932063572 124.11680648691134 C 0.0 **** -0.24
28902 H 86.80815110018831 2.6509431855200063 123.80970460645287 H 0.0 **** 0.06
28903 H 85.32338466894703 1.6783710958641933 123.67675705492385 H 0.0 **** 0.06
28904 H 86.23916923159224 1.7004455586149305 125.2033347008109 H 0.0 **** 0.06
28905 H 86.90810305581357 0.8745101550913148 123.77480320148527 H 0.0 **** 0.06
28906 C 9.858478801493106 84.37489319271316 25.328221566500815 C 0.0 **** -0.24
28907 H 10.568587775027822 83.95935607025265 24.61343569730093 H 0.0 **** 0.06
28908 H 10.392360071580129 84.70668842954179 26.219465914994373 H 0.0 **** 0.06
28909 H 9.130803645416904 83.61208621141988 25.6036540224772 H 0.0 **** 0.06
28910 H 9.342289938419128 85.22241470514827 24.8765257766089 H 0.0 **** 0.06
28911 C 12.696768905518326 72.87697334725497 118.5650288362518 C 0.0 **** -0.24
28912 H 12.578840312663516 73.8697754728584 118.13208722999855 H 0.0 **** 0.06
28913 H 13.063931455346136 72.96776532214096 119.58819856031712 H 0.0 **** 0.06
28914 H 13.410098940674658 72.30408467627757 117.97301404962215 H 0.0 **** 0.06
28915 H 11.733927381299225 72.36581572253587 118.56846433990205 H 0.0 **** 0.06
28916 C 10.899574413109882 0.9419645517415773 76.35840611425294 C 0.0 **** -0.24
28917 H 10.109789971837294 1.6793888325375264 76.21153294327644 H 0.0 **** 0.06
28918 H 10.461024304712627 0.0044313945184200065 76.70093657485751 H 0.0 **** 0.06
28919 H 11.60444244872047 1.307999603807417 77.10536068814014 H 0.0 **** 0.06
28920 H 11.421838793950865 0.7767671005922097 75.4159489879101 H 0.0 **** 0.06
28921 C 53.88875407767412 0.18792604633615895 4.798227536914226 C 0.0 **** -0.24
28922 H 53.57131736463825 0.5050511441867656 3.8053558128827376 H 0.0 **** 0.06
28923 H 54.764579914227085 -0.45607478166030546 4.711039150457111 H 0.0 **** 0.06
28924 H 53.07978514020465 -0.36140676860462406 5.27899295000978 H 0.0 **** 0.06
28925 H 54.13968934829987 1.0641371426421244 5.396153383953106 H 0.0 **** 0.06
28926 C 80.80444792455216 1.9351778451973853 124.25058811616057 C 0.0 **** -0.24
28927 H 79.85883295119639 2.00899136582019 123.71232827108264 H 0.0 **** 0.06
28928 H 80.90547628297934 2.785258395415484 124.92631151225592 H 0.0 **** 0.06
28929 H 81.6285492603653 1.938056191684499 123.53626222361623 H 0.0 **** 0.06
28930 H 80.82482289012655 1.009244147533284 124.82380558032614 H 0.0 **** 0.06
28931 C 119.28741625443485 37.401692501282 110.14933742535467 C 0.0 **** -0.24
28932 H 120.24990011903952 37.72515004610795 110.54526256423516 H 0.0 **** 0.06
28933 H 118.67610287368542 38.27533360971722 109.92207788672049 H 0.0 **** 0.06
28934 H 118.778540464429 36.784769029295845 110.8897072960056 H 0.0 **** 0.06
28935 H 119.44524403132833 36.822454060353174 109.23997397265175 H 0.0 **** 0.06
28936 C 74.44888554531386 59.0408464453333 102.60182713743902 C 0.0 **** -0.24
28937 H 75.15552652847495 58.40905064586542 103.14073096916661 H 0.0 **** 0.06
28938 H 74.4328852194661 58.75315482614417 101.54984885176987 H 0.0 **** 0.06
28939 H 74.7537172549338 60.083320833913206 102.68915091449259 H 0.0 **** 0.06
28940 H 73.4525564699575 58.91636862503253 103.02778656465787 H 0.0 **** 0.06
28941 C 74.77164355647311 80.26486985187837 47.734069656791775 C 0.0 **** -0.24
28942 H 75.15252116563529 80.3071816157329 46.71464748709133 H 0.0 **** 0.06
28943 H 75.28711456191772 81.0051067093794 48.34604902617539 H 0.0 **** 0.06
28944 H 74.94318015377418 79.26968277200304 48.14445068217316 H 0.0 **** 0.06
28945 H 73.70175656261522 80.47654011223477 47.73136750260656 H 0.0 **** 0.06
28946 C 32.91774458948953 105.62533700700519 17.114376102008283 C 0.0 **** -0.24
28947 H 33.97190767373246 105.89758809798764 17.167179945594246 H 0.0 **** 0.06
28948 H 32.81754261292218 104.54415393651436 17.21731063924017 H 0.0 **** 0.06
28949 H 32.50973393735393 105.93787193613296 16.153850797353538 H 0.0 **** 0.06
28950 H 32.37373663901303 106.11931946115745 17.91853299777384 H 0.0 **** 0.06
28951 C 82.47893606549663 97.77552556777185 86.4901514119081 C 0.0 **** -0.24
28952 H 83.07346813887577 97.60854715459156 85.59133463951204 H 0.0 **** 0.06
28953 H 82.60518535156136 98.80620048362773 86.82262408497101 H 0.0 **** 0.06
28954 H 82.80958922045473 97.09690698335247 87.27613232085596 H 0.0 **** 0.06
28955 H 81.42804879282362 97.59133957349414 86.26829980662583 H 0.0 **** 0.06
28956 C 85.01933809369244 100.16372407980191 70.30369847420258 C 0.0 **** -0.24
28957 H 85.71885615163221 99.53754814122249 69.7507573947056 H 0.0 **** 0.06
28958 H 84.40339190237795 100.72708184815855 69.60187079820764 H 0.0 **** 0.06
28959 H 85.57501814764147 100.85626989259617 70.93671327323693 H 0.0 **** 0.06
28960 H 84.38186549041299 99.53532924424701 70.9256931037541 H 0.0 **** 0.06
28961 C 122.7627037442798 89.60946359409267 114.66281301701073 C 0.0 **** -0.24
28962 H 122.82122641304466 88.57122322189885 114.33526948805442 H 0.0 **** 0.06
28963 H 122.36535036609004 89.64887801135278 115.6771100696968 H 0.0 **** 0.06
28964 H 122.10580111525024 90.16494676424256 113.99358130620706 H 0.0 **** 0.06
28965 H 123.75828630450528 90.05327068342064 114.64441842642685 H 0.0 **** 0.06
28966 C 41.373272873899765 93.78016709100952 64.09712767347858 C 0.0 **** -0.24
28967 H 40.43968328472047 94.21883849092275 63.74519077984047 H 0.0 **** 0.06
28968 H 41.185601076520044 93.20505837914882 65.00453168499723 H 0.0 **** 0.06
28969 H 42.08974654788187 94.57394374121574 64.31121147145751 H 0.0 **** 0.06
28970 H 41.77897752245295 93.12360269697642 63.32682923028892 H 0.0 **** 0.06
28971 C 87.04041188520836 20.59561537957402 20.267849244391982 C 0.0 **** -0.24
28972 H 87.21560633440578 19.61064112613834 19.83390064165411 H 0.0 **** 0.06
28973 H 86.28608390024851 20.518310369754808 21.050475528658865 H 0.0 **** 0.06
28974 H 86.69183928223094 21.27705533296625 19.49264322789611 H 0.0 **** 0.06
28975 H 87.9700560784454 20.975114408176353 20.693708316592392 H 0.0 **** 0.06
28976 C 70.99754421255179 5.734595539492233 110.2673529876916 C 0.0 **** -0.24
28977 H 69.9770973589148 5.358527020190024 110.20173791291273 H 0.0 **** 0.06
28978 H 71.02279865265437 6.603104211404002 110.92519915961498 H 0.0 **** 0.06
28979 H 71.3444123512219 6.020270699350178 109.27427801281362 H 0.0 **** 0.06
28980 H 71.64620254877691 4.955652410219358 110.66774611497618 H 0.0 **** 0.06
28981 C 118.83085842866066 91.55306955948947 79.75224431174928 C 0.0 **** -0.24
28982 H 119.23396259035218 91.73422159724674 78.75608937602203 H 0.0 **** 0.06
28983 H 119.62537078072369 91.65867727229914 80.49092613626289 H 0.0 **** 0.06
28984 H 118.42061846021785 90.54461342558938 79.80038030962322 H 0.0 **** 0.06
28985 H 118.04181512582377 92.27623148883231 79.9618541197255 H 0.0 **** 0.06
28986 C 11.638168926604468 44.6668060973721 56.40769800998589 C 0.0 **** -0.24
28987 H 11.941741394788163 44.21358114437069 57.35047874513293 H 0.0 **** 0.06
28988 H 10.847794851988787 45.39405160387474 56.59216338836964 H 0.0 **** 0.06
28989 H 11.270530802169159 43.892543659490485 55.73387486949551 H 0.0 **** 0.06
28990 H 12.493538686630298 45.1673981435201 55.95326878660481 H 0.0 **** 0.06
28991 C 50.447664150213654 113.9926057885169 41.68604317914378 C 0.0 **** -0.24
28992 H 49.54053274823849 113.40547434708732 41.82935402863228 H 0.0 **** 0.06
28993 H 51.31889680522784 113.3413678041338 41.76370600067588 H 0.0 **** 0.06
28994 H 50.50353336464855 114.76724924019084 42.45033292750253 H 0.0 **** 0.06
28995 H 50.42799417894054 114.45663834454841 40.699876563661746 H 0.0 **** 0.06
28996 C 87.41410736673646 26.455718271769967 118.1460959400279 C 0.0 **** -0.24
28997 H 88.28131693661169 26.45865515850349 117.48656839201766 H 0.0 **** 0.06
28998 H 87.61949509034082 25.826181050287374 119.01201654174483 H 0.0 **** 0.06
28999 H 86.55076075787895 26.065148468626603 117.60835295860439 H 0.0 **** 0.06
29000 H 87.20585030268279 27.47294313851293 118.47734699134266 H 0.0 **** 0.06
29001 C 23.789713675590683 59.81356582097803 1.9011265976860159 C 0.0 **** -0.24
29002 H 24.31297506078115 60.211570563241054 1.031819721855186 H 0.0 **** 0.06
29003 H 24.503829920467112 59.638387832153825 2.706123118464646 H 0.0 **** 0.06
29004 H 23.30462955637092 58.87437599339992 1.6343053136678094 H 0.0 **** 0.06
29005 H 23.037331666162856 60.52897549544696 2.231217417695788 H 0.0 **** 0.06
29006 C 87.91997648813378 59.23652956590598 105.21994512451239 C 0.0 **** -0.24
29007 H 87.51657774666296 58.22894928397065 105.31368980257054 H 0.0 **** 0.06
29008 H 88.90312714303332 59.27919284617494 105.68963799264968 H 0.0 **** 0.06
29009 H 87.25104514830508 59.943128715573636 105.71279529898767 H 0.0 **** 0.06
29010 H 88.00836921095748 59.49683511008021 104.16576231712087 H 0.0 **** 0.06
29011 C 13.379030699005625 32.70516371033938 51.172957069882756 C 0.0 **** -0.24
29012 H 13.75375772226326 33.525972868491294 51.78289361364264 H 0.0 **** 0.06
29013 H 12.677411774212231 33.09290340117215 50.43350484478053 H 0.0 **** 0.06
29014 H 12.872081849551506 31.980979741533957 51.810070961018866 H 0.0 **** 0.06
29015 H 14.212861969396457 32.22122520703499 50.66401044615914 H 0.0 **** 0.06
29016 C 61.21871565554716 100.31613165933771 111.56934320849209 C 0.0 **** -0.24
29017 H 60.871551560156774 99.63980764076351 110.78842029140995 H 0.0 **** 0.06
29018 H 62.00137713626253 100.96227558402863 111.17012796123451 H 0.0 **** 0.06
29019 H 61.61527774478401 99.73593321443602 112.40256405764357 H 0.0 **** 0.06
29020 H 60.38504455207169 100.92721035636093 111.91764352722491 H 0.0 **** 0.06
29021 C 0.613609767659284 81.7685023841388 77.16723046988659 C 0.0 **** -0.24
29022 H 0.34770107779786485 80.75405919613152 77.4646834974165 H 0.0 **** 0.06
29023 H 1.6601719523462606 81.95623317401687 77.40884482092963 H 0.0 **** 0.06
29024 H -0.015573516860200698 82.48009194845659 77.70196254963099 H 0.0 **** 0.06
29025 H 0.4613852521593884 81.88375159968224 76.09407529796226 H 0.0 **** 0.06
29026 C 31.23512895891494 73.38982005856874 18.941337752046678 C 0.0 **** -0.24
29027 H 31.057143710242762 73.53689393650839 20.006489487540364 H 0.0 **** 0.06
29028 H 31.99279922044102 74.09385527160711 18.599244448169884 H 0.0 **** 0.06
29029 H 30.30847813742028 73.55751008057675 18.392517186268748 H 0.0 **** 0.06
29030 H 31.58079595137599 72.37001109993236 18.768237208848177 H 0.0 **** 0.06
29031 C 65.14712648969387 35.9584771379719 57.417508956992066 C 0.0 **** -0.24
29032 H 64.16340790367374 35.49779898928375 57.33677479438751 H 0.0 **** 0.06
29033 H 65.07315963624356 36.873958899612376 58.00581486419165 H 0.0 **** 0.06
29034 H 65.51967686713814 36.195498426016115 56.42107741456712 H 0.0 **** 0.06
29035 H 65.83325181172304 35.266785271927745 57.906327036102454 H 0.0 **** 0.06
29036 C 9.022898260418373 30.278303633873065 10.848420812412058 C 0.0 **** -0.24
29037 H 8.906342778746435 30.033852542551614 9.792903803483682 H 0.0 **** 0.06
29038 H 10.083279544073392 30.36703871550077 11.085442636078312 H 0.0 **** 0.06
29039 H 8.580088165729109 29.488079206910925 11.455065112051443 H 0.0 **** 0.06
29040 H 8.522985920876692 31.22294029376428 11.059983762933541 H 0.0 **** 0.06
29041 C 31.22367713821967 110.58247217749357 7.9245263276462445 C 0.0 **** -0.24
29042 H 30.996379413019383 109.7369742045995 7.274388889566755 H 0.0 **** 0.06
29043 H 30.408181024315695 110.72417552199579 8.634523522574582 H 0.0 **** 0.06
29044 H 31.342973879836677 111.482593835052 7.3217527555904525 H 0.0 **** 0.06
29045 H 32.14826265675174 110.38398057677773 8.467801101830197 H 0.0 **** 0.06
29046 C 76.74328095006129 51.57525530109261 31.385035546022095 C 0.0 **** -0.24
29047 H 76.0106423201155 51.69044799647935 30.585635746346497 H 0.0 **** 0.06
29048 H 76.2397768532638 51.64135640349278 32.35059760414373 H 0.0 **** 0.06
29049 H 77.48897266029064 52.36611945551965 31.309032740127293 H 0.0 **** 0.06
29050 H 77.23096478153533 50.60554205196965 31.294270400078517 H 0.0 **** 0.06
29051 C 41.12455523141722 52.707147832845976 86.3007998991382 C 0.0 **** -0.24
29052 H 41.52016497356112 52.20206541375748 87.18237940559047 H 0.0 **** 0.06
29053 H 40.04920932253981 52.84299376166456 86.412678074171 H 0.0 **** 0.06
29054 H 41.32490311046848 52.102711583189375 85.41641128039554 H 0.0 **** 0.06
29055 H 41.605168044103266 53.67884996371299 86.19387973720492 H 0.0 **** 0.06
29056 C 103.32441253046608 48.71310735939071 94.80603158782978 C 0.0 **** -0.24
29057 H 102.97202604496403 49.34721048803385 95.62011926269571 H 0.0 **** 0.06
29058 H 103.32819466871558 47.67319713228255 95.13228012707171 H 0.0 **** 0.06
29059 H 104.33601501065397 49.009600835501665 94.52600689002439 H 0.0 **** 0.06
29060 H 102.66327327210064 48.82287044444225 93.9472507218331 H 0.0 **** 0.06
29061 C 71.13339959586759 9.007169374333955 113.95900488727227 C 0.0 **** -0.24
29062 H 70.10386290719697 8.77329855089971 114.23032823683695 H 0.0 **** 0.06
29063 H 71.33388246909782 8.644024517928074 112.95084361204374 H 0.0 **** 0.06
29064 H 71.81330287196536 8.524896459571721 114.66080046917114 H 0.0 **** 0.06
29065 H 71.28189700671362 10.086960806835918 113.99289802067256 H 0.0 **** 0.06
29066 C 38.19680844131302 12.162723077132938 54.34394373781765 C 0.0 **** -0.24
29067 H 38.19312853054914 13.164308579419412 54.77467181875886 H 0.0 **** 0.06
29068 H 38.02472261556457 11.428169807801197 55.13208699305193 H 0.0 **** 0.06
29069 H 39.16181028229411 11.972982165770219 53.8740431770604 H 0.0 **** 0.06
29070 H 37.40747519582376 12.086163693139795 53.5968317376599 H 0.0 **** 0.06
29071 C 75.6066526079535 82.72308000385758 67.19005629067664 C 0.0 **** -0.24
29072 H 76.04305444058107 82.28065090046688 68.08667535358808 H 0.0 **** 0.06
29073 H 75.17340452154279 83.69236316150143 67.43901617010772 H 0.0 **** 0.06
29074 H 74.82871421242332 82.06515270034895 66.80236022777854 H 0.0 **** 0.06
29075 H 76.38229449236577 82.85410654348266 66.43581534985444 H 0.0 **** 0.06
29076 C 15.87028783092012 115.44617246583508 93.00323966038667 C 0.0 **** -0.24
29077 H 15.647703350079524 116.50892429324747 93.10050439034293 H 0.0 **** 0.06
29078 H 16.123555781209944 115.2211186731964 91.96714562381749 H 0.0 **** 0.06
29079 H 14.996932208138887 114.86349074464556 93.29836631601447 H 0.0 **** 0.06
29080 H 16.710851479843043 115.19076567205315 93.6475763480361 H 0.0 **** 0.06
29081 C 101.37674426804585 51.395259199283686 14.296468211259224 C 0.0 **** -0.24
29082 H 102.43074114600518 51.59818002468276 14.486406175259361 H 0.0 **** 0.06
29083 H 101.13622133727216 50.38554951466335 14.630626600625817 H 0.0 **** 0.06
29084 H 101.17720614102507 51.4822007778379 13.228283105358656 H 0.0 **** 0.06
29085 H 100.76411624997115 52.11403627093864 14.840176875335828 H 0.0 **** 0.06
29086 C 106.01513096674157 8.00261044624978 50.01818166952703 C 0.0 **** -0.24
29087 H 105.06859211971407 8.108304548409272 50.547755692288526 H 0.0 **** 0.06
29088 H 105.97629246483089 7.121567731793984 49.377360299004394 H 0.0 **** 0.06
29089 H 106.8246404058609 7.891715044684286 50.74035439153661 H 0.0 **** 0.06
29090 H 106.19047311873084 8.888644654368086 49.408080682249825 H 0.0 **** 0.06
29091 C 102.49432308720446 0.8555586751246267 10.87657279221969 C 0.0 **** -0.24
29092 H 102.67292432141238 -0.10119168837169923 11.367425166862006 H 0.0 **** 0.06
29093 H 103.1033534715495 1.626009417066001 11.350632296400732 H 0.0 **** 0.06
29094 H 101.44051348114118 1.1189109923977867 10.965542231821388 H 0.0 **** 0.06
29095 H 102.76236648639025 0.7772752492571016 9.822767701732516 H 0.0 **** 0.06
29096 C 95.31831464420787 38.50809475665592 110.81949149283187 C 0.0 **** -0.24
29097 H 96.08566122264523 38.16498550872008 110.12617271108027 H 0.0 **** 0.06
29098 H 95.74664852139955 38.60343849419706 111.81740250272739 H 0.0 **** 0.06
29099 H 94.50097726980482 37.78706562011315 110.84122449657634 H 0.0 **** 0.06
29100 H 94.93968945568372 39.47726300137448 110.49228257899061 H 0.0 **** 0.06
29101 C 50.49808798520186 62.21873904940688 79.54140021303803 C 0.0 **** -0.24
29102 H 51.43932063472249 62.55435734209392 79.97709297565828 H 0.0 **** 0.06
29103 H 50.5174665562254 62.38487417568467 78.4644488298793 H 0.0 **** 0.06
29104 H 49.67416796152375 62.779881011607145 79.98177411762757 H 0.0 **** 0.06
29105 H 50.36352826424448 61.15621816313033 79.74436267936758 H 0.0 **** 0.06
29106 C 22.48093429503595 57.336725438570426 63.452596817571504 C 0.0 **** -0.24
29107 H 23.21779568906709 57.731133426589935 62.75242657588946 H 0.0 **** 0.06
29108 H 22.673846657818864 56.276877216649325 63.624458323409954 H 0.0 **** 0.06
29109 H 21.481622945710818 57.46153197237638 63.03607089835772 H 0.0 **** 0.06
29110 H 22.550852555465305 57.87748654902853 64.39651555114796 H 0.0 **** 0.06
29111 C 83.81294023400035 123.34418464555338 11.22779016431204 C 0.0 **** -0.24
29112 H 84.52918930604332 123.00784480019685 11.977819839292096 H 0.0 **** 0.06
29113 H 83.04522613896783 123.9532370113771 11.706667052634117 H 0.0 **** 0.06
29114 H 83.34948768492308 122.47951881306847 10.753936411164943 H 0.0 **** 0.06
29115 H 84.33030485127519 123.93887674841565 10.47345271783513 H 0.0 **** 0.06
29116 C 9.574720989878358 18.532575151258612 28.465651924081925 C 0.0 **** -0.24
29117 H 9.722155713693581 18.19275618414997 29.490229748527696 H 0.0 **** 0.06
29118 H 10.523920753663418 18.498433358532196 27.931695176694177 H 0.0 **** 0.06
29119 H 9.197879914950704 19.55614635904567 28.472328925116642 H 0.0 **** 0.06
29120 H 8.854306179458945 17.884138200834684 27.967867147273935 H 0.0 **** 0.06
29121 C 121.47916314125645 51.358617745074525 102.62917721081718 C 0.0 **** -0.24
29122 H 121.19780405599347 50.76684832905261 103.50022642257377 H 0.0 **** 0.06
29123 H 120.60522912898132 51.89182956580635 102.25405824256742 H 0.0 **** 0.06
29124 H 121.86461274675132 50.69918133310142 101.85090798850788 H 0.0 **** 0.06
29125 H 122.2495739020441 52.07542543387996 102.91099564957707 H 0.0 **** 0.06
29126 C 61.25514832117349 58.903040322212235 117.34745235335392 C 0.0 **** -0.24
29127 H 61.27923456115269 58.21860789771462 118.19515146897626 H 0.0 **** 0.06
29128 H 62.229819307516635 59.37937643663052 117.23781146520695 H 0.0 **** 0.06
29129 H 60.49495639638249 59.66583106056521 117.51852918588452 H 0.0 **** 0.06
29130 H 61.01591560672031 58.34949824733529 116.44037325136868 H 0.0 **** 0.06
29131 C 73.02905513350976 66.5286894548363 14.806742450920979 C 0.0 **** -0.24
29132 H 73.70258662485944 65.72040413610904 15.090684088274486 H 0.0 **** 0.06
29133 H 72.76950155340376 66.43122373447574 13.752206001559443 H 0.0 **** 0.06
29134 H 73.52122654021863 67.48677411815032 14.972856185010272 H 0.0 **** 0.06
29135 H 72.12290581555743 66.47635583060998 15.411223528839443 H 0.0 **** 0.06
29136 C 67.79619805800047 40.24157764649658 90.5929247383744 C 0.0 **** -0.24
29137 H 68.70431562525579 40.29951856803956 89.99316560206337 H 0.0 **** 0.06
29138 H 67.85922325884684 39.38525275137491 91.26526339525354 H 0.0 **** 0.06
29139 H 66.9339768500004 40.12503890999402 89.93662069367397 H 0.0 **** 0.06
29140 H 67.68758752484656 41.154838665861945 91.17702636603806 H 0.0 **** 0.06
29141 C 49.38012086482424 31.066710043127927 38.1570489345894 C 0.0 **** -0.24
29142 H 50.26527394614614 31.702298044851375 38.127559370792284 H 0.0 **** 0.06
29143 H 49.30289158492119 30.507744625427563 37.22471209448713 H 0.0 **** 0.06
29144 H 48.49260187486148 31.686796010575847 38.28310107300007 H 0.0 **** 0.06
29145 H 49.46078966239257 30.37218423865508 38.99311181911065 H 0.0 **** 0.06
29146 C 50.01054775937256 57.29232047839295 85.24043103129257 C 0.0 **** -0.24
29147 H 49.73561068914299 56.91442740554126 86.22491267810203 H 0.0 **** 0.06
29148 H 49.989196862175696 56.47489224117304 84.51892359331622 H 0.0 **** 0.06
29149 H 51.01549239396834 57.714186794932544 85.281086613897 H 0.0 **** 0.06
29150 H 49.30406909316064 58.06467018883194 84.93698827690056 H 0.0 **** 0.06
29151 C 14.97105065328617 113.57456787119816 67.30896826565763 C 0.0 **** -0.24
29152 H 15.56838786455171 114.42040102216151 67.64971488311402 H 0.0 **** 0.06
29153 H 14.583372437426192 113.78312673411597 66.310987505613 H 0.0 **** 0.06
29154 H 14.139955627476297 113.41525502981017 67.99566846210905 H 0.0 **** 0.06
29155 H 15.593913568098515 112.68049019872024 67.27778136306553 H 0.0 **** 0.06
29156 C 1.3864681182798293 1.3903355115495373 42.76126211434935 C 0.0 **** -0.24
29157 H 0.6707258171429977 1.0595254805854353 43.51261309062211 H 0.0 **** 0.06
29158 H 1.4477963705597592 2.47955116591082 42.772483855686204 H 0.0 **** 0.06
29159 H 1.0610174862087085 1.0550762738455433 41.77653838097605 H 0.0 **** 0.06
29160 H 2.3673576636547597 0.969318643929455 42.98276882631509 H 0.0 **** 0.06
29161 C 105.21836895657657 29.84758492139276 89.21884134643086 C 0.0 **** -0.24
29162 H 105.27316227249979 29.05210072213407 89.96117026352145 H 0.0 **** 0.06
29163 H 105.52890071910453 30.789683544375215 89.67340712885431 H 0.0 **** 0.06
29164 H 104.19465260752858 29.938576814079184 88.85807697830407 H 0.0 **** 0.06
29165 H 105.87865767403522 29.611503933296206 88.38446416978746 H 0.0 **** 0.06
29166 C 7.985909489249636 27.69537633569655 29.71438327572544 C 0.0 **** -0.24
29167 H 7.309530572230798 27.02494096741563 29.18478281350869 H 0.0 **** 0.06
29168 H 8.241160464214452 28.536335077761663 29.068695190028336 H 0.0 **** 0.06
29169 H 8.893751072752568 27.15735162961346 29.98651331905731 H 0.0 **** 0.06
29170 H 7.497927474706781 28.064873585638082 30.616903137840666 H 0.0 **** 0.06
29171 C 71.73127045273665 65.23835851275675 84.1030782545015 C 0.0 **** -0.24
29172 H 71.39015251662775 64.32605011832254 83.61323166442932 H 0.0 **** 0.06
29173 H 70.95227577141256 65.60454173908391 84.77159214656365 H 0.0 **** 0.06
29174 H 71.94897612769702 65.99503382408119 83.34925173265972 H 0.0 **** 0.06
29175 H 72.63387523441722 65.02643370801576 84.67648492379422 H 0.0 **** 0.06
29176 C 113.41644778750675 43.39013285977225 40.15228083210238 C 0.0 **** -0.24
29177 H 114.08157405617806 42.612490098377215 39.77678583845082 H 0.0 **** 0.06
29178 H 113.06548971873345 43.11824399516701 41.148225426194045 H 0.0 **** 0.06
29179 H 112.56328713990777 43.493769580871195 39.48165495991262 H 0.0 **** 0.06
29180 H 113.9568247583523 44.33576344797715 40.20257260100885 H 0.0 **** 0.06
29181 C 112.26112595142479 55.59048016411754 38.85049241415069 C 0.0 **** -0.24
29182 H 113.145331856182 54.9563308421732 38.91575549016995 H 0.0 **** 0.06
29183 H 111.50140698811484 55.225816962381316 39.541110615259676 H 0.0 **** 0.06
29184 H 111.87069203006723 55.56532092933412 37.8328273878272 H 0.0 **** 0.06
29185 H 112.52929438527357 56.614440554491864 39.11253166536971 H 0.0 **** 0.06
29186 C 40.966444994343846 41.94870045197707 0.8556569627202197 C 0.0 **** -0.24
29187 H 41.751698934739544 41.66368547576372 0.15603393704413193 H 0.0 **** 0.06
29188 H 40.05932362568527 41.385000460601724 0.6336953773805227 H 0.0 **** 0.06
29189 H 40.76405508541501 43.014753349060754 0.7604352929321259 H 0.0 **** 0.06
29190 H 41.29021794541568 41.73015496844857 1.8730175814988606 H 0.0 **** 0.06
29191 C 45.59687754818515 123.35253892480713 84.0797304437062 C 0.0 **** -0.24
29192 H 46.50014309999179 122.87246730144851 84.45821078267801 H 0.0 **** 0.06
29193 H 45.85564922464593 124.31370959161335 83.63488563057172 H 0.0 **** 0.06
29194 H 44.897612469870225 123.50780873306259 84.90118788730264 H 0.0 **** 0.06
29195 H 45.136219408892714 122.71467592158388 83.32577716684246 H 0.0 **** 0.06
29196 C 19.310833447966104 117.54790883883257 55.92941576179351 C 0.0 **** -0.24
29197 H 19.230532873301172 117.44417184526844 57.01148699796545 H 0.0 **** 0.06
29198 H 19.15763530688764 116.57641146420761 55.45868024282012 H 0.0 **** 0.06
29199 H 20.302235178779654 117.92297605287354 55.67411215047005 H 0.0 **** 0.06
29200 H 18.554778866928814 118.24784496288092 55.57462066232 H 0.0 **** 0.06
29201 C 15.467866124762452 18.193879446706205 120.90010220477471 C 0.0 **** -0.24
29202 H 15.93138270616015 18.661367426519917 121.76907866968276 H 0.0 **** 0.06
29203 H 15.225886425299166 17.15664861952655 121.13208011177144 H 0.0 **** 0.06
29204 H 16.15901740836449 18.22694396794509 120.05787043764245 H 0.0 **** 0.06
29205 H 14.555697900392886 18.731675710995148 120.64295443013398 H 0.0 **** 0.06
29206 C 99.81074594134057 79.016671916089 8.313540784763376 C 0.0 **** -0.24
29207 H 100.53745331827642 79.82151413356446 8.416681538561946 H 0.0 **** 0.06
29208 H 99.31678195081588 79.09524136510575 7.344380221779801 H 0.0 **** 0.06
29209 H 99.06754677384481 79.09380036341746 9.107260456237924 H 0.0 **** 0.06
29210 H 100.3201670913123 78.0557043256934 8.384976683220927 H 0.0 **** 0.06
29211 C 2.851434464924232 39.64445195818607 115.52496584376271 C 0.0 **** -0.24
29212 H 3.261572873884333 40.11056920133487 116.42184432101976 H 0.0 **** 0.06
29213 H 3.2321057303065537 38.627372225609264 115.43841039681452 H 0.0 **** 0.06
29214 H 3.1480788619550886 40.22074860049243 114.6487375758207 H 0.0 **** 0.06
29215 H 1.763458344329143 39.62122306698711 115.59317235802182 H 0.0 **** 0.06
29216 C 114.40063346282791 108.99939395835754 15.768912925823486 C 0.0 **** -0.24
29217 H 114.47004423358783 109.89003329444888 15.145383169047705 H 0.0 **** 0.06
29218 H 113.53174661911771 109.07989431503421 16.421744471731984 H 0.0 **** 0.06
29219 H 115.30318594227488 108.90834009432669 16.37415418522147 H 0.0 **** 0.06
29220 H 114.29837176230009 108.11892934763482 15.133930750869865 H 0.0 **** 0.06
29221 C 82.77388907387186 64.00320702346949 46.27867926368327 C 0.0 **** -0.24
29222 H 83.76087482716794 63.5799931595532 46.46830498600872 H 0.0 **** 0.06
29223 H 82.42216803151102 64.51752153785094 47.17285909944613 H 0.0 **** 0.06
29224 H 82.07989028819297 63.20381436894856 46.021644824689105 H 0.0 **** 0.06
29225 H 82.83577446309074 64.71128263471195 45.45175672640869 H 0.0 **** 0.06
29226 C 8.35454679132215 106.16325943950542 62.246993561087265 C 0.0 **** -0.24
29227 H 8.280327274032771 105.65084318408572 63.20657356963554 H 0.0 **** 0.06
29228 H 7.450231036584938 106.74823073469011 62.07776196167211 H 0.0 **** 0.06
29229 H 8.467304708791204 105.427638869242 61.450053926009815 H 0.0 **** 0.06
29230 H 9.219755770559516 106.82544122487323 62.25555866954028 H 0.0 **** 0.06
29231 C 106.53027780083374 69.51762507314525 1.1202806193077208 C 0.0 **** -0.24
29232 H 106.77717307000694 68.71907267049002 0.4206589401531744 H 0.0 **** 0.06
29233 H 107.14131013966386 69.41483094055218 2.0173706851283555 H 0.0 **** 0.06
29234 H 105.47620815640312 69.45131926804521 1.3892274826515916 H 0.0 **** 0.06
29235 H 106.72694168172376 70.48302368350419 0.6546707892089216 H 0.0 **** 0.06
29236 C 90.45348846895098 87.51506571202712 104.86800776568424 C 0.0 **** -0.24
29237 H 90.79494846039918 86.54421819999868 104.50905110583714 H 0.0 **** 0.06
29238 H 89.85612726877554 87.37854768947814 105.7692514133617 H 0.0 **** 0.06
29239 H 89.84771433447938 87.99278663921652 104.09838377403057 H 0.0 **** 0.06
29240 H 91.3150993794388 88.14250469780143 105.0942810949972 H 0.0 **** 0.06
29241 C 83.81568421949315 54.23270402473804 74.272219782555 C 0.0 **** -0.24
29242 H 82.8490511382021 54.7352798801935 74.31210370008415 H 0.0 **** 0.06
29243 H 84.6027404869603 54.93532623615691 74.5469017674788 H 0.0 **** 0.06
29244 H 83.99269800863061 53.86561030400516 73.26122570196469 H 0.0 **** 0.06
29245 H 83.81787151314641 53.39369714104093 74.96885845006216 H 0.0 **** 0.06
29246 C 21.922804380761534 21.792902344139804 118.67445470656997 C 0.0 **** -0.24
29247 H 22.878635743460634 22.22957002497114 118.38600468121285 H 0.0 **** 0.06
29248 H 22.018486997622027 20.70836298294867 118.72380957057715 H 0.0 **** 0.06
29249 H 21.1652226419045 22.05774985546043 117.93727740109279 H 0.0 **** 0.06
29250 H 21.628289401673143 22.17698119679052 119.651467555529 H 0.0 **** 0.06
29251 C 97.76792077885324 9.634031517264063 98.54858325889414 C 0.0 **** -0.24
29252 H 97.72693910126505 9.974880226769159 99.58349214803734 H 0.0 **** 0.06
29253 H 96.76313123120804 9.627149190218276 98.12809756664409 H 0.0 **** 0.06
29254 H 98.18377627707984 8.626074288024071 98.5156858850215 H 0.0 **** 0.06
29255 H 98.40040214089736 10.306357434923484 97.96982265548138 H 0.0 **** 0.06
29256 C 54.96826709888343 109.8570787367618 98.45612076881594 C 0.0 **** -0.24
29257 H 54.33291760212501 110.15176654325953 97.62061203361532 H 0.0 **** 0.06
29258 H 55.29556695863165 108.82626273512176 98.31712462066872 H 0.0 **** 0.06
29259 H 54.40613542709987 109.93795932287954 99.38568353806636 H 0.0 **** 0.06
29260 H 55.83895109086866 110.5116190046336 98.49877218436404 H 0.0 **** 0.06
29261 C 30.991529611045415 66.11184578823779 74.52349387176646 C 0.0 **** -0.24
29262 H 30.861046647759657 66.6640096817774 73.59305423770894 H 0.0 **** 0.06
29263 H 31.711859364066754 66.6311162460407 75.15611617548302 H 0.0 **** 0.06
29264 H 31.357137643712683 65.10978778868568 74.30184736160956 H 0.0 **** 0.06
29265 H 30.035375135119352 66.0429185307483 75.04143818598051 H 0.0 **** 0.06
29266 C 105.7658799979024 56.59775318729848 77.64315283537798 C 0.0 **** -0.24
29267 H 106.60713466991726 56.32265646186639 78.28044409686149 H 0.0 **** 0.06
29268 H 106.11897387640627 56.749088348126705 76.62241821618517 H 0.0 **** 0.06
29269 H 105.31588376328008 57.51795244705124 78.01324109210219 H 0.0 **** 0.06
29270 H 105.0235756980208 55.79872908553742 77.65684958105936 H 0.0 **** 0.06
29271 C 107.40582232933426 52.5570435509259 56.20301354120707 C 0.0 **** -0.24
29272 H 107.4492002264806 53.6464151062969 56.17791890943042 H 0.0 **** 0.06
29273 H 108.41450158354058 52.15118729062027 56.12930779204271 H 0.0 **** 0.06
29274 H 106.80678070323466 52.19911960418344 55.366214738131134 H 0.0 **** 0.06
29275 H 106.95179266541473 52.233962529270116 57.1394313898565 H 0.0 **** 0.06
29276 C 103.1275508750287 105.42363746330463 84.07334369980077 C 0.0 **** -0.24
29277 H 103.76215737831788 105.95068679527739 84.78548502745002 H 0.0 **** 0.06
29278 H 102.4219361926411 106.12516707871316 83.62785313091638 H 0.0 **** 0.06
29279 H 102.57986303883997 104.63536707560871 84.5893093067549 H 0.0 **** 0.06
29280 H 103.74714115997128 104.983763817587 83.29083309441603 H 0.0 **** 0.06
29281 C 107.94291283073966 62.50952987314585 103.67345963378636 C 0.0 **** -0.24
29282 H 108.1363522629474 63.56550434886276 103.48752484804413 H 0.0 **** 0.06
29283 H 107.96385305234685 61.96515631444295 102.72778537566376 H 0.0 **** 0.06
29284 H 106.96352037218318 62.39523341101598 104.13736415477479 H 0.0 **** 0.06
29285 H 108.70843950557772 62.1112516403778 104.33897600312633 H 0.0 **** 0.06
29286 C 121.36192692139508 112.84472737118533 14.805431616917126 C 0.0 **** -0.24
29287 H 122.24239527068562 112.20844063129819 14.893790919538702 H 0.0 **** 0.06
29288 H 121.56523590549801 113.65144246221033 14.101722241835674 H 0.0 **** 0.06
29289 H 121.11936925723478 113.26536255703564 15.781149563093841 H 0.0 **** 0.06
29290 H 120.52045646500096 112.2517015302453 14.44731917034677 H 0.0 **** 0.06
29291 C 55.18734300596793 93.0193386599986 116.56580415637177 C 0.0 **** -0.24
29292 H 54.23695983786709 92.74493912952238 116.10891205303602 H 0.0 **** 0.06
29293 H 55.02457504752803 93.81334426633993 117.29448473505386 H 0.0 **** 0.06
29294 H 55.87368650324322 93.36833631073625 115.79454354572647 H 0.0 **** 0.06
29295 H 55.614208693836815 92.14932685910361 117.06539488017563 H 0.0 **** 0.06
29296 C 104.32918977368932 59.09512165857359 52.412442671776404 C 0.0 **** -0.24
29297 H 104.40251760041087 58.48680364751459 51.511753015187026 H 0.0 **** 0.06
29298 H 105.31434193612719 59.18452762045388 52.87211493525915 H 0.0 **** 0.06
29299 H 103.64216631047579 58.62383331855327 53.11549230315812 H 0.0 **** 0.06
29300 H 103.95888839082788 60.08677356420395 52.152010141676016 H 0.0 **** 0.06
29301 C 117.854289744287 43.094439886030784 82.23592965939254 C 0.0 **** -0.24
29302 H 117.6843579763148 44.00402889057423 81.65990905198412 H 0.0 **** 0.06
29303 H 118.00943744467297 43.352388838746066 83.28382481997683 H 0.0 **** 0.06
29304 H 118.73616244335065 42.58133687357659 81.85248534397262 H 0.0 **** 0.06
29305 H 116.98527123007615 42.441399005145456 82.14692282804792 H 0.0 **** 0.06
29306 C 123.98625604398238 61.2756959732678 1.8288300300614821 C 0.0 **** -0.24
29307 H 124.75534906531601 60.611518156806795 1.4350363802107324 H 0.0 **** 0.06
29308 H 123.00406358134555 60.829566967664135 1.670777454812395 H 0.0 **** 0.06
29309 H 124.03684542770877 62.23542208270854 1.3148181603578735 H 0.0 **** 0.06
29310 H 124.1484859746117 61.42738208581733 2.8966116341620705 H 0.0 **** 0.06
29311 C 2.475267309155882 40.668164927155146 14.537027908024186 C 0.0 **** -0.24
29312 H 1.7876323602364863 39.90566410219094 14.172243952942267 H 0.0 **** 0.06
29313 H 1.9074615250695501 41.51982839720711 14.912790701380857 H 0.0 **** 0.06
29314 H 3.1226465700205495 40.9927308999537 13.722517799744764 H 0.0 **** 0.06
29315 H 3.0831587996204064 40.25406172388176 15.341470685374361 H 0.0 **** 0.06
29316 C 92.394045246795 75.95684598301142 40.65854040917003 C 0.0 **** -0.24
29317 H 92.79416444520345 76.89630972784818 41.03924788309706 H 0.0 **** 0.06
29318 H 91.62780926452788 76.16526570172414 39.91144912991973 H 0.0 **** 0.06
29319 H 91.95585232159053 75.38979328605961 41.4802465255234 H 0.0 **** 0.06
29320 H 93.19781537652139 75.37776443590093 40.204845798071176 H 0.0 **** 0.06
29321 C 16.35782861353991 35.09075301790273 104.61370027496883 C 0.0 **** -0.24
29322 H 16.322870090709387 34.42621125664999 105.47649272423911 H 0.0 **** 0.06
29323 H 17.352718281462046 35.53055149756247 104.53475329369797 H 0.0 **** 0.06
29324 H 15.618645164518455 35.88179593209921 104.73505750590496 H 0.0 **** 0.06
29325 H 16.13857577222197 34.5228228335593 103.70954973193261 H 0.0 **** 0.06
29326 C 100.17159541067043 31.85831217797206 0.28044952430114733 C 0.0 **** -0.24
29327 H 99.62896533549376 31.87158466154655 1.2259923210303896 H 0.0 **** 0.06
29328 H 100.71509910515158 32.79603906264754 0.16097241693755393 H 0.0 **** 0.06
29329 H 99.46590410777337 31.738758768978833 -0.542101091965236 H 0.0 **** 0.06
29330 H 100.87651673792442 31.026797128575936 0.2779266901691386 H 0.0 **** 0.06
29331 C 113.67699524493737 68.2220596223769 103.47885085922698 C 0.0 **** -0.24
29332 H 113.46445801970933 67.63139549158576 104.36989155110427 H 0.0 **** 0.06
29333 H 113.42880601899283 69.26722808538825 103.6687634788889 H 0.0 **** 0.06
29334 H 113.07869814308563 67.85135441365013 102.64634803553818 H 0.0 **** 0.06
29335 H 114.73580555993148 68.1391308226728 103.23188267597246 H 0.0 **** 0.06
29336 C 16.358834897360968 84.31870836399423 123.60094550074223 C 0.0 **** -0.24
29337 H 17.273630335561705 84.8045056366847 123.25998937938606 H 0.0 **** 0.06
29338 H 16.60622772441544 83.35895045352927 124.05478166103327 H 0.0 **** 0.06
29339 H 15.69459453755358 84.15874756926263 122.75222826683307 H 0.0 **** 0.06
29340 H 15.863268724344564 84.95230972214671 124.336308117193 H 0.0 **** 0.06
29341 C 80.60240367447165 58.699400575030666 99.83389610577362 C 0.0 **** -0.24
29342 H 79.87981909826027 57.8841854790918 99.88484361642955 H 0.0 **** 0.06
29343 H 80.7714112958696 59.097034831351834 100.83485872046045 H 0.0 **** 0.06
29344 H 80.21495933305766 59.48748608084179 99.18928556406128 H 0.0 **** 0.06
29345 H 81.54256948941122 58.32593476318306 99.42730384414733 H 0.0 **** 0.06
29346 C 53.16303936990175 3.838115558465148 115.69617476020045 C 0.0 **** -0.24
29347 H 52.90911899908683 4.590464587218975 116.44251989543869 H 0.0 **** 0.06
29348 H 52.605624571650324 4.03285153726074 114.77977617588729 H 0.0 **** 0.06
29349 H 52.905182873457505 2.8489839068266036 116.07464841930761 H 0.0 **** 0.06
29350 H 54.23223103541241 3.880162202554459 115.48775455016866 H 0.0 **** 0.06
29351 C 59.57028119646418 55.25081972091576 46.8247069806373 C 0.0 **** -0.24
29352 H 58.69989282007049 55.073002818424655 47.455603868788614 H 0.0 **** 0.06
29353 H 59.792688765740934 54.35180968714798 46.24930314386279 H 0.0 **** 0.06
29354 H 60.42694621825791 55.50367757959695 47.450247311054454 H 0.0 **** 0.06
29355 H 59.36227757824486 56.076619340154394 46.14324218235657 H 0.0 **** 0.06
29356 C 31.185033741952594 73.73717316576568 10.978639378532371 C 0.0 **** -0.24
29357 H 30.217311920264905 73.25387559014831 11.11161538055379 H 0.0 **** 0.06
29358 H 31.082322799418932 74.568825497821 10.280511419598692 H 0.0 **** 0.06
29359 H 31.89922961156809 73.01626204199448 10.582027396608403 H 0.0 **** 0.06
29360 H 31.539370349005253 74.1098049583428 11.939227100396192 H 0.0 **** 0.06
29361 C 43.08360820255831 109.37841873786516 105.68633913137445 C 0.0 **** -0.24
29362 H 43.091055001346774 110.30892754711641 106.25348336240218 H 0.0 **** 0.06
29363 H 42.06223517916084 109.00250216162021 105.6194539355191 H 0.0 **** 0.06
29364 H 43.71113707642223 108.6420420119089 106.18698018140827 H 0.0 **** 0.06
29365 H 43.47012816236236 109.56203012610774 104.68306251440517 H 0.0 **** 0.06
29366 C 55.05015824497751 73.87335699734298 75.40020869416895 C 0.0 **** -0.24
29367 H 55.8546002625163 73.44604787998773 75.99833044747547 H 0.0 **** 0.06
29368 H 54.1373249425031 73.29490684036128 75.55325984893024 H 0.0 **** 0.06
29369 H 55.325700725454666 73.84492719945243 74.34637723151093 H 0.0 **** 0.06
29370 H 54.881609116457554 74.90636576138787 75.70449604516303 H 0.0 **** 0.06
29371 C 19.92354398169681 17.14621241601901 100.61920578351166 C 0.0 **** -0.24
29372 H 18.995921785162835 17.530987510444845 100.19628988618231 H 0.0 **** 0.06
29373 H 19.970853131007004 17.396732571640996 101.67878078386823 H 0.0 **** 0.06
29374 H 20.771397927276936 17.594097300220483 100.10101998900345 H 0.0 **** 0.06
29375 H 19.955720525011202 16.06304242706159 100.49934677476838 H 0.0 **** 0.06
29376 C 63.433355131764216 0.8624739191489752 27.068448672373307 C 0.0 **** -0.24
29377 H 62.52570200991627 0.2597423333496245 27.038065292994986 H 0.0 **** 0.06
29378 H 64.095008329396 0.5629049751798831 26.25577641774302 H 0.0 **** 0.06
29379 H 63.93768670433755 0.7099021954280644 28.02314301768031 H 0.0 **** 0.06
29380 H 63.174391010388405 1.9144945028427713 26.958381122147927 H 0.0 **** 0.06
29381 C 2.725914602910578 108.35114446490377 28.125722398253032 C 0.0 **** -0.24
29382 H 2.7903410340256585 108.98730934813929 27.24337771214445 H 0.0 **** 0.06
29383 H 2.4120550590413643 108.95011676133839 28.981638969307227 H 0.0 **** 0.06
29384 H 3.7020291165655976 107.91185409844022 28.328434191246373 H 0.0 **** 0.06
29385 H 1.9994624147690843 107.55901795399782 27.949766688354657 H 0.0 **** 0.06
29386 C 22.18467239873695 83.42146995823867 114.81192390899542 C 0.0 **** -0.24
29387 H 22.97499420300703 83.64493114378388 114.09515598149488 H 0.0 **** 0.06
29388 H 22.410162105247508 83.9058638499202 115.76289538577417 H 0.0 **** 0.06
29389 H 22.12211663166434 82.34354250102223 114.95966644447974 H 0.0 **** 0.06
29390 H 21.233031979223426 83.79181731687675 114.43112470216231 H 0.0 **** 0.06
29391 C 5.687550887162018 67.60931168390822 22.33162797923329 C 0.0 **** -0.24
29392 H 6.704375769027138 67.23110524436346 22.223661391594547 H 0.0 **** 0.06
29393 H 5.018700786645951 67.04325083207887 21.682553704055906 H 0.0 **** 0.06
29394 H 5.66027306696094 68.66233490835984 22.05396155852327 H 0.0 **** 0.06
29395 H 5.367387852339959 67.4985700412702 23.368519836592597 H 0.0 **** 0.06
29396 C 31.115236716579247 104.55683895114834 11.524793958154948 C 0.0 **** -0.24
29397 H 32.05016957888145 104.72607354183538 12.059124297187815 H 0.0 **** 0.06
29398 H 30.970672914909642 105.34623176618186 10.78664692626253 H 0.0 **** 0.06
29399 H 30.286134327233164 104.56447736776721 12.232081431097914 H 0.0 **** 0.06
29400 H 31.15508620267677 103.59144095506804 11.021288862983656 H 0.0 **** 0.06
29401 C 61.47061791429343 83.74918789139296 104.50912836226308 C 0.0 **** -0.24
29402 H 62.14937060502325 83.59198821927232 105.34745035305534 H 0.0 **** 0.06
29403 H 61.994421430012494 83.54474204884608 103.57523891859573 H 0.0 **** 0.06
29404 H 61.12272456184104 84.78178735811618 104.51216492523302 H 0.0 **** 0.06
29405 H 60.6170784973952 83.07753691401832 104.602161399595 H 0.0 **** 0.06
29406 C 92.01060313129942 44.858353875432215 25.20483591330302 C 0.0 **** -0.24
29407 H 91.8608715712764 43.80651661362543 24.964724580283857 H 0.0 **** 0.06
29408 H 91.05315441221158 45.378303558690334 25.173563232292437 H 0.0 **** 0.06
29409 H 92.6899675872334 45.30395784422785 24.477627696566906 H 0.0 **** 0.06
29410 H 92.43862724903748 44.946031614660626 26.20331358565845 H 0.0 **** 0.06
29411 C 92.08985779838876 86.23115987567934 68.29223239852291 C 0.0 **** -0.24
29412 H 91.30473542868046 85.646820900465 67.81352948861337 H 0.0 **** 0.06
29413 H 91.8179921150057 86.42333865683838 69.32994384740954 H 0.0 **** 0.06
29414 H 92.20953604957501 87.17837544481796 67.76629277125062 H 0.0 **** 0.06
29415 H 93.02716760029409 85.67610450059607 68.25916348681812 H 0.0 **** 0.06
29416 C 65.30449974987938 18.75503687972804 44.85644806203228 C 0.0 **** -0.24
29417 H 64.57237122114672 19.167326519078657 45.551813328775815 H 0.0 **** 0.06
29418 H 66.2638015884368 18.64418948988458 45.36360349611294 H 0.0 **** 0.06
29419 H 65.41704555776215 19.42924577041319 44.00702322459085 H 0.0 **** 0.06
29420 H 64.96309883845274 17.781105842475483 44.505635486985305 H 0.0 **** 0.06
29421 C 35.362949935405254 0.1977215546365585 87.24305097968553 C 0.0 **** -0.24
29422 H 35.53576469264459 -0.8257489577885053 87.57514110628267 H 0.0 **** 0.06
29423 H 35.53989864420947 0.8838968928829445 88.07175859378611 H 0.0 **** 0.06
29424 H 34.33210075295091 0.29849880067249046 86.90075327720248 H 0.0 **** 0.06
29425 H 36.04183652033089 0.4342816891947905 86.42414806748536 H 0.0 **** 0.06
29426 C 59.82199658323157 65.51872464416437 116.1842986996482 C 0.0 **** -0.24
29427 H 59.787893225691846 65.70606385187972 115.11095173725901 H 0.0 **** 0.06
29428 H 60.62100141713796 66.10966803314926 116.6308116716669 H 0.0 **** 0.06
29429 H 60.00893145385572 64.45967751114307 116.36267819465971 H 0.0 **** 0.06
29430 H 58.86800317336733 65.79895713566543 116.63249966751822 H 0.0 **** 0.06
29431 C 26.38317170187338 45.37030935489628 69.03740278893403 C 0.0 **** -0.24
29432 H 26.67726156992586 45.951738723244205 69.91039114436936 H 0.0 **** 0.06
29433 H 25.65530982840687 44.61336670469797 69.33290529291989 H 0.0 **** 0.06
29434 H 27.261006687204485 44.88361427391254 68.61194143441853 H 0.0 **** 0.06
29435 H 25.93776244672489 46.03114365940502 68.2932332073477 H 0.0 **** 0.06
29436 C 19.23859355684209 59.69152023098141 100.00971625219393 C 0.0 **** -0.24
29437 H 18.755215870616155 59.28561869610766 100.89880269650668 H 0.0 **** 0.06
29438 H 18.88491497651563 60.707478806348064 99.83508142308537 H 0.0 **** 0.06
29439 H 18.994508042572136 59.069430957312335 99.14823906894334 H 0.0 **** 0.06
29440 H 20.318275435825512 59.701650692829986 100.15623955120869 H 0.0 **** 0.06
29441 C 50.2127077296403 113.63425075098951 50.61758715060999 C 0.0 **** -0.24
29442 H 49.22557240955214 113.53097482447053 50.16717773370313 H 0.0 **** 0.06
29443 H 50.83481943103554 114.27256483760061 49.989528308594146 H 0.0 **** 0.06
29444 H 50.67521582586386 112.65086327846187 50.70797023625152 H 0.0 **** 0.06
29445 H 50.11588256284239 114.08136607237336 51.607416698724585 H 0.0 **** 0.06
29446 C 11.652351945236433 72.0129995890284 57.88786135903047 C 0.0 **** -0.24
29447 H 12.139660738108716 71.1605489206299 58.359563200487145 H 0.0 **** 0.06
29448 H 10.656722388387806 72.14279933709534 58.313937176085545 H 0.0 **** 0.06
29449 H 11.568648846146274 71.83607842295632 56.81618541489145 H 0.0 **** 0.06
29450 H 12.242199700168797 72.91251709343513 58.062882986073774 H 0.0 **** 0.06
29451 C 78.7614322617457 122.47839127646145 30.839494983640577 C 0.0 **** -0.24
29452 H 78.2625220016822 122.10887382210262 29.94492582363518 H 0.0 **** 0.06
29453 H 79.5788245707177 121.80718270730725 31.103029757349432 H 0.0 **** 0.06
29454 H 78.04779330546327 122.52313328796612 31.66149634541177 H 0.0 **** 0.06
29455 H 79.15845339138235 123.4759366735056 30.64823292535334 H 0.0 **** 0.06
29456 C 2.203104539055346 48.18110300905094 123.54971373449479 C 0.0 **** -0.24
29457 H 1.6872209145329293 47.262776599447 123.27086906307045 H 0.0 **** 0.06
29458 H 2.7698891683637044 48.01527714857886 124.46643764599446 H 0.0 **** 0.06
29459 H 1.4720287172762028 48.97307799374181 123.71322670403882 H 0.0 **** 0.06
29460 H 2.883209889253692 48.4735381672473 122.75054164741626 H 0.0 **** 0.06
29461 C 88.15826703451756 10.953565852689337 38.630729398225675 C 0.0 **** -0.24
29462 H 88.3644710789999 12.022177671566396 38.565251052335384 H 0.0 **** 0.06
29463 H 87.37414801512942 10.691327500284217 37.919863614809074 H 0.0 **** 0.06
29464 H 87.83228688550355 10.707589530646032 39.640813177602546 H 0.0 **** 0.06
29465 H 89.06398010548291 10.394058522746434 38.39561003062584 H 0.0 **** 0.06
29466 C 83.06772307676982 23.407528704528147 25.134211257249582 C 0.0 **** -0.24
29467 H 82.07829739964643 23.732322625715398 24.810904139444446 H 0.0 **** 0.06
29468 H 82.97442263338573 22.80430740669354 26.036942539589887 H 0.0 **** 0.06
29469 H 83.68647403691185 24.27989740275217 25.34115747225038 H 0.0 **** 0.06
29470 H 83.52888071127785 22.812924743254854 24.34546954741066 H 0.0 **** 0.06
29471 C 117.25632244399003 51.719438739308146 39.958141157744365 C 0.0 **** -0.24
29472 H 116.70086554563397 52.42874258435049 39.3444764257344 H 0.0 **** 0.06
29473 H 117.7727059873576 52.25521491261918 40.75458175892038 H 0.0 **** 0.06
29474 H 117.98617398563977 51.19746789986496 39.33950243967968 H 0.0 **** 0.06
29475 H 116.56587862866951 50.997184589394124 40.393607553813524 H 0.0 **** 0.06
29476 C 110.70844585346853 96.50585971158878 98.26849127671355 C 0.0 **** -0.24
29477 H 110.68699993816338 95.58951523545674 97.6776548851799 H 0.0 **** 0.06
29478 H 111.74042819118347 96.83215811118828 98.39500800260576 H 0.0 **** 0.06
29479 H 110.2644008970509 96.31752709433826 99.2464011164323 H 0.0 **** 0.06
29480 H 110.14062402650842 97.28179027063624 97.75538813959739 H 0.0 **** 0.06
29481 C 8.732154153817344 4.163672882625406 82.33873081542706 C 0.0 **** -0.24
29482 H 8.026419287886775 3.332665429813801 82.37600979778885 H 0.0 **** 0.06
29483 H 8.185747040838173 5.105772224350176 82.38035761511512 H 0.0 **** 0.06
29484 H 9.302397977342206 4.113706182455985 81.41172166786455 H 0.0 **** 0.06
29485 H 9.412232163089229 4.099513698352496 83.18805183852264 H 0.0 **** 0.06
29486 C 110.71811448339758 51.10963673164585 43.07405279740195 C 0.0 **** -0.24
29487 H 111.54533393193202 51.17145147533867 43.78110062081569 H 0.0 **** 0.06
29488 H 110.8696887963282 51.83270705049122 42.272564024299186 H 0.0 **** 0.06
29489 H 109.7828475766197 51.3301271428239 43.58985272737334 H 0.0 **** 0.06
29490 H 110.67404361544664 50.104665143149774 42.65428789590314 H 0.0 **** 0.06
29491 C 109.03007915682986 110.81664338182992 0.8629734255530366 C 0.0 **** -0.24
29492 H 108.01863806442232 110.41185186975841 0.8725334561784166 H 0.0 **** 0.06
29493 H 108.99261928265656 111.88453215771085 0.6473463469803846 H 0.0 **** 0.06
29494 H 109.61586391041183 110.31060994809727 0.09451901502296778 H 0.0 **** 0.06
29495 H 109.49414798718993 110.65740066012685 1.8356658312540048 H 0.0 **** 0.06
29496 C 56.036973943394514 11.43674344450369 56.042318810191375 C 0.0 **** -0.24
29497 H 56.748472753846556 12.167309263105352 56.427356133431374 H 0.0 **** 0.06
29498 H 55.89605628045331 10.644887365358102 56.77885661496191 H 0.0 **** 0.06
29499 H 56.421942665887286 11.008358089102984 55.11707789018078 H 0.0 **** 0.06
29500 H 55.08293988816047 11.926417281565506 55.84790882259517 H 0.0 **** 0.06
29501 C 80.82803985077248 82.85482378023947 5.154500793478203 C 0.0 **** -0.24
29502 H 80.038386483306 83.09742783663202 4.444570904428538 H 0.0 **** 0.06
29503 H 81.2800992406912 81.90100207844999 4.883281040639254 H 0.0 **** 0.06
29504 H 80.4050358741436 82.78506111530442 6.15751954050323 H 0.0 **** 0.06
29505 H 81.58769471548673 83.63612683796866 5.134633358769523 H 0.0 **** 0.06
29506 C 53.07338805683116 95.58795311736137 28.815384764106568 C 0.0 **** -0.24
29507 H 53.29682753371901 96.53588947808205 29.304754928010396 H 0.0 **** 0.06
29508 H 53.80629674026352 94.84080069127397 29.12083664682939 H 0.0 **** 0.06
29509 H 53.114809473325124 95.71786273487656 27.73446783664565 H 0.0 **** 0.06
29510 H 52.075866713115715 95.25699855490599 29.10368657087197 H 0.0 **** 0.06
29511 C 72.09029311698721 50.310784680894926 64.19538894578665 C 0.0 **** -0.24
29512 H 71.19582966727599 50.58128321465537 64.75687483945308 H 0.0 **** 0.06
29513 H 72.87302807259339 50.00173854160357 64.88881899258075 H 0.0 **** 0.06
29514 H 72.43185397746242 51.17192947132537 63.619860832894915 H 0.0 **** 0.06
29515 H 71.85906559846411 49.489818168934704 63.51718212540544 H 0.0 **** 0.06
29516 C 28.71004607131718 61.15945452713103 89.99537759844941 C 0.0 **** -0.24
29517 H 28.522575541422242 60.149192191769785 89.63003038965795 H 0.0 **** 0.06
29518 H 29.354389249936304 61.114502849524314 90.87346525302178 H 0.0 **** 0.06
29519 H 27.76375320932152 61.62997708958103 90.26169137501483 H 0.0 **** 0.06
29520 H 29.19928449154 61.742487068911515 89.21453025178215 H 0.0 **** 0.06
29521 C 35.39256643152976 94.51465822703314 34.10912716483094 C 0.0 **** -0.24
29522 H 35.739140924594636 93.96877828958608 34.98649248736288 H 0.0 **** 0.06
29523 H 34.59273777076305 95.19649928429875 34.39899545014441 H 0.0 **** 0.06
29524 H 35.019157192676516 93.80999073092586 33.366702139541715 H 0.0 **** 0.06
29525 H 36.22072002771739 95.08367172313724 33.68623830465597 H 0.0 **** 0.06
29526 C 4.891330061921977 104.87381553850756 10.321709386519245 C 0.0 **** -0.24
29527 H 4.270899452554982 104.3553288640987 9.591055495477661 H 0.0 **** 0.06
29528 H 4.531157780662273 105.89554292236653 10.444932059831814 H 0.0 **** 0.06
29529 H 5.9239623233670855 104.89084544290915 9.974097149597185 H 0.0 **** 0.06
29530 H 4.8378192719381055 104.35207683548403 11.277559302303047 H 0.0 **** 0.06
29531 C 76.35900978781133 10.084772934239709 9.328806481836494 C 0.0 **** -0.24
29532 H 77.41092150542403 9.798647454063456 9.345560146118402 H 0.0 **** 0.06
29533 H 76.14787129389431 10.742057590674534 10.173380469520566 H 0.0 **** 0.06
29534 H 75.73894563161063 9.192142714331624 9.398062026716929 H 0.0 **** 0.06
29535 H 76.14136353319519 10.608063049964016 8.397078337484942 H 0.0 **** 0.06
29536 C 10.953571382146066 24.855674417961495 114.7058531766412 C 0.0 **** -0.24
29537 H 10.223936385892173 25.255291108055133 114.00133277467825 H 0.0 **** 0.06
29538 H 11.868745356507134 25.446206779474835 114.65357620173347 H 0.0 **** 0.06
29539 H 11.174094250958944 23.819077558999595 114.4507329475669 H 0.0 **** 0.06
29540 H 10.548449179225514 24.903580947492742 115.71636029795843 H 0.0 **** 0.06
29541 C 72.4973662725138 34.73673661840738 73.29659935957193 C 0.0 **** -0.24
29542 H 72.87607751251765 33.833130131747794 72.8182920803851 H 0.0 **** 0.06
29543 H 71.57362531198851 35.046822344288046 72.80812194424871 H 0.0 **** 0.06
29544 H 73.2391302763141 35.53106462844724 73.2108211277399 H 0.0 **** 0.06
29545 H 72.30133798230409 34.53458292028702 74.34999223177132 H 0.0 **** 0.06
29546 C 100.66734573213333 38.98580491586702 48.35778114597896 C 0.0 **** -0.24
29547 H 100.72366343526794 39.73515642907617 47.567400603045144 H 0.0 **** 0.06
29548 H 101.02560891549 38.02935519845636 47.97759814485711 H 0.0 **** 0.06
29549 H 99.63330835980697 38.88308779200423 48.6860639245985 H 0.0 **** 0.06
29550 H 101.28697753824349 39.29846600552574 49.19912843063693 H 0.0 **** 0.06
29551 C 2.9909671709152406 91.68363867767823 23.690080047592062 C 0.0 **** -0.24
29552 H 3.0846336890639634 91.25748817784148 22.691537105206322 H 0.0 **** 0.06
29553 H 2.040955458210334 91.37616535634402 24.12886323935129 H 0.0 **** 0.06
29554 H 3.0268109958204548 92.77059390174708 23.625712325431323 H 0.0 **** 0.06
29555 H 3.810455383720779 91.32832116241354 24.314378221849637 H 0.0 **** 0.06
29556 C 118.45365123857184 32.06035470616558 60.893654285757435 C 0.0 **** -0.24
29557 H 117.96779691968109 32.0464721473832 59.91812030258586 H 0.0 **** 0.06
29558 H 119.49560951404086 32.358477577170454 60.77556773156611 H 0.0 **** 0.06
29559 H 118.40756348072327 31.065356433381744 61.336372102279924 H 0.0 **** 0.06
29560 H 117.94328825001455 32.771818992898645 61.543381869413324 H 0.0 **** 0.06
29561 C 89.0789913404657 65.94425296615285 119.76400969933152 C 0.0 **** -0.24
29562 H 89.05700606087143 66.95882013282133 120.1626509582423 H 0.0 **** 0.06
29563 H 88.57058976855316 65.92233327587081 118.79928374921028 H 0.0 **** 0.06
29564 H 88.57255473501465 65.27138860058238 120.45654147188867 H 0.0 **** 0.06
29565 H 90.11363623859404 65.62626796966487 119.63770786012452 H 0.0 **** 0.06
29566 C 123.3478613879891 2.08124805731671 19.77943669164748 C 0.0 **** -0.24
29567 H 123.55773181250811 2.9242449641682047 19.120555545189593 H 0.0 **** 0.06
29568 H 123.7043280820804 2.307892840468446 20.785062582356197 H 0.0 **** 0.06
29569 H 123.85603427233917 1.1926359631702699 19.40537445583858 H 0.0 **** 0.06
29570 H 122.27333421493955 1.901917739721375 19.807089324145874 H 0.0 **** 0.06
29571 C 82.82301837828894 18.73962620682291 61.148698706619925 C 0.0 **** -0.24
29572 H 83.36437887949509 18.851294813683463 60.209537587212665 H 0.0 **** 0.06
29573 H 81.91076753140192 18.166856339307213 60.97597671790038 H 0.0 **** 0.06
29574 H 82.5647777269098 19.724281017016562 61.539435729486925 H 0.0 **** 0.06
29575 H 83.45082459479582 18.21570576845339 61.86951244218385 H 0.0 **** 0.06
29576 C 45.8688740176288 110.26046314438737 86.95533302052127 C 0.0 **** -0.24
29577 H 46.76132392994097 110.50115875009308 86.37650613941594 H 0.0 **** 0.06
29578 H 45.18547933809677 109.67339721713775 86.3420296692016 H 0.0 **** 0.06
29579 H 45.37835152967571 111.18410034805486 87.26467390365823 H 0.0 **** 0.06
29580 H 46.152190633216605 109.68672890490193 87.83707298253529 H 0.0 **** 0.06
29581 C 6.791421989836039 100.41035937960365 62.484761525194784 C 0.0 **** -0.24
29582 H 6.773104788973484 100.27199630200494 63.564935468107194 H 0.0 **** 0.06
29583 H 5.824930478059343 100.79021480001026 62.150538797853756 H 0.0 **** 0.06
29584 H 6.995050313669651 99.45633061001288 61.99888263210909 H 0.0 **** 0.06
29585 H 7.5723505454008375 101.12465470782396 62.2230030332357 H 0.0 **** 0.06
29586 C 19.59702760363234 56.88179914699808 12.864333005587213 C 0.0 **** -0.24
29587 H 19.29949908444314 56.14812060588943 13.614341906187349 H 0.0 **** 0.06
29588 H 18.708866065086 57.364337878347925 12.455665423768721 H 0.0 **** 0.06
29589 H 20.141417379496374 56.382022855631334 12.062751962926171 H 0.0 **** 0.06
29590 H 20.238650629177755 57.6316773689629 13.326526933009944 H 0.0 **** 0.06
29591 C 70.05013419924077 27.446345503038515 65.2864770503311 C 0.0 **** -0.24
29592 H 70.28336841732809 28.317022220934064 64.67296453957678 H 0.0 **** 0.06
29593 H 69.01126496713675 27.15778376658693 65.12554362694767 H 0.0 **** 0.06
29594 H 70.19999015056388 27.691788708012666 66.33730885041926 H 0.0 **** 0.06
29595 H 70.70435665748849 26.620375579658344 65.00834337657948 H 0.0 **** 0.06
29596 C 89.29815851159728 119.44465422138474 89.33883170328431 C 0.0 **** -0.24
29597 H 88.83270965398481 118.54936452272653 89.7522485352664 H 0.0 **** 0.06
29598 H 89.76967822685972 120.01238874874278 90.1419484162218 H 0.0 **** 0.06
29599 H 88.53740678711526 120.05983173076032 88.85769951416336 H 0.0 **** 0.06
29600 H 90.0509822762706 119.1572950102537 88.60554750708593 H 0.0 **** 0.06
29601 C 120.10840307912909 37.6165492283752 22.527720255390378 C 0.0 **** -0.24
29602 H 121.0929719697646 37.950025474571724 22.856722441721253 H 0.0 **** 0.06
29603 H 119.68110876731976 38.35749199403812 21.85156559000376 H 0.0 **** 0.06
29604 H 119.45819818478404 37.496119519659985 23.39404812123422 H 0.0 **** 0.06
29605 H 120.20365669178472 36.66281234030245 22.009278965863324 H 0.0 **** 0.06
29606 C 73.97872712001849 102.78557914940254 63.14079707478837 C 0.0 **** -0.24
29607 H 74.87221706559545 102.21518022659544 62.886188522989045 H 0.0 **** 0.06
29608 H 73.13413226081033 102.10556390204871 63.253515812200334 H 0.0 **** 0.06
29609 H 73.76636329648251 103.50060063371032 62.34603888217927 H 0.0 **** 0.06
29610 H 74.1433426013002 103.31891316252333 64.07677637687317 H 0.0 **** 0.06
29611 C 58.03742797934791 66.62020124193819 25.987425631170936 C 0.0 **** -0.24
29612 H 58.34180015986789 65.69336007820439 25.499890188513177 H 0.0 **** 0.06
29613 H 58.916134787347175 67.23599046200033 26.17634791867158 H 0.0 **** 0.06
29614 H 57.54481899497932 66.38786324042391 26.931839297561297 H 0.0 **** 0.06
29615 H 57.34571021476643 67.16092764013473 25.34009240952716 H 0.0 **** 0.06
29616 C 76.03594620021008 34.22999527512809 29.56904137344126 C 0.0 **** -0.24
29617 H 75.90327117480449 35.15565441224312 30.12887277083172 H 0.0 **** 0.06
29618 H 77.09607828189662 33.97814320637728 29.5290007021243 H 0.0 **** 0.06
29619 H 75.6555282194411 34.36040895491293 28.55564551250417 H 0.0 **** 0.06
29620 H 75.49007914316493 33.42608644831009 30.061919057245078 H 0.0 **** 0.06
29621 C 86.8803231101459 97.90568241756552 72.71210238093535 C 0.0 **** -0.24
29622 H 87.75108069760918 97.25252560877284 72.76702141645157 H 0.0 **** 0.06
29623 H 86.59969609647968 98.22176602551424 73.71738313802409 H 0.0 **** 0.06
29624 H 86.05116364535706 97.36760533888149 72.2548833545901 H 0.0 **** 0.06
29625 H 87.12232501511525 98.78235635558693 72.11047820960115 H 0.0 **** 0.06
29626 C 48.64693615713645 65.568886381798 48.04939942102902 C 0.0 **** -0.24
29627 H 47.71478293643972 65.24032392861841 47.590678644431875 H 0.0 **** 0.06
29628 H 48.595369781056206 66.63906961427756 48.252326797158105 H 0.0 **** 0.06
29629 H 49.475778259869756 65.36621446400136 47.37201510964297 H 0.0 **** 0.06
29630 H 48.801481900437636 65.02887278961754 48.984515317123225 H 0.0 **** 0.06
29631 C 119.26297699016482 101.37295967946426 67.86231356456021 C 0.0 **** -0.24
29632 H 119.47343210253494 101.05706857743087 68.88387567284691 H 0.0 **** 0.06
29633 H 119.11398591782142 100.49474647586038 67.23399442279275 H 0.0 **** 0.06
29634 H 120.10165864479598 101.95527777095924 67.4814351063496 H 0.0 **** 0.06
29635 H 118.36035396370974 101.98561097228435 67.85100494215317 H 0.0 **** 0.06
29636 C 59.2961426745029 31.544737613192524 0.16173666701791944 C 0.0 **** -0.24
29637 H 59.866099906035515 31.677488301741505 1.0810122981045112 H 0.0 **** 0.06
29638 H 59.08083562788545 32.51981051869774 -0.27623645642313477 H 0.0 **** 0.06
29639 H 58.3600876432082 31.031855080574758 0.38579528754740977 H 0.0 **** 0.06
29640 H 59.87744387840348 30.9491460847388 -0.5423729588028721 H 0.0 **** 0.06
29641 C 15.392547323356695 89.24537828150946 10.256250655843843 C 0.0 **** -0.24
29642 H 15.390781245390869 88.16298603906603 10.380542907175311 H 0.0 **** 0.06
29643 H 14.37763938800218 89.62583053829195 10.375220041875167 H 0.0 **** 0.06
29644 H 15.759427852235007 89.49567755052755 9.260715787895066 H 0.0 **** 0.06
29645 H 16.040734283675818 89.69671705585216 11.006998049213621 H 0.0 **** 0.06
29646 C 98.10093808687468 82.32777742670694 7.403722731733058 C 0.0 **** -0.24
29647 H 98.91380623677838 82.21523934385493 8.120494807411504 H 0.0 **** 0.06
29648 H 97.25621470090702 82.81938530674856 7.886234698354098 H 0.0 **** 0.06
29649 H 97.79402916882067 81.34496206543372 7.045858800615708 H 0.0 **** 0.06
29650 H 98.44044151040926 82.93144621009856 6.561633562198754 H 0.0 **** 0.06
29651 C 55.28615997411072 41.77196784601392 59.732692737594135 C 0.0 **** -0.24
29652 H 55.16728030515401 42.38510020208432 58.839273992659514 H 0.0 **** 0.06
29653 H 56.286154757876005 41.3395929268481 59.74633151688765 H 0.0 **** 0.06
29654 H 54.54437007062876 40.97318523717976 59.72515589885468 H 0.0 **** 0.06
29655 H 55.145484800824164 42.39100634883286 60.61854290250514 H 0.0 **** 0.06
29656 C 98.51540542257521 73.07828869259191 90.01264657734598 C 0.0 **** -0.24
29657 H 98.35115012105067 74.1039002373925 89.68154707159184 H 0.0 **** 0.06
29658 H 98.97057534794294 72.50403527201004 89.20552138823975 H 0.0 **** 0.06
29659 H 97.56204890312426 72.6278573770787 90.28709444136945 H 0.0 **** 0.06
29660 H 99.17940588854731 73.07856790843782 90.87748011595684 H 0.0 **** 0.06
29661 C 60.79707633180156 110.75858366961981 93.22322369729268 C 0.0 **** -0.24
29662 H 60.4981640567582 111.35589755048187 94.08504579480879 H 0.0 **** 0.06
29663 H 60.65994879186901 109.70066751048563 93.44918872987486 H 0.0 **** 0.06
29664 H 61.846181696088934 110.94905682756857 92.99708078984912 H 0.0 **** 0.06
29665 H 60.185275118097096 111.0291931019531 92.36362179625516 H 0.0 **** 0.06
29666 C 48.45498593893751 31.642946334342838 33.48658573890899 C 0.0 **** -0.24
29667 H 47.87554187107412 30.81289913153107 33.08180067711859 H 0.0 **** 0.06
29668 H 48.48881681638608 31.565704129692108 34.57261830695451 H 0.0 **** 0.06
29669 H 47.985385280619255 32.58557689357896 33.202663843612974 H 0.0 **** 0.06
29670 H 49.46803203248186 31.60674124423842 33.08633520081688 H 0.0 **** 0.06
29671 C 72.87192557983127 1.6234064172895302 18.9714010798601 C 0.0 **** -0.24
29672 H 72.64980486937205 2.5743012694605483 19.456350675176253 H 0.0 **** 0.06
29673 H 72.23595128893422 0.8442983065124565 19.39279876714275 H 0.0 **** 0.06
29674 H 73.91887204785792 1.367463518563909 19.135888351789703 H 0.0 **** 0.06
29675 H 72.68210239525817 1.7083617336887755 17.901757016815452 H 0.0 **** 0.06
29676 C 73.3378802875124 37.722172801106396 41.72227126694051 C 0.0 **** -0.24
29677 H 73.50430496060157 37.03166646950074 40.894780117657625 H 0.0 **** 0.06
29678 H 72.55985327751912 37.325363492331206 42.375041589206816 H 0.0 **** 0.06
29679 H 73.0257021947371 38.68997389283507 41.33030370134628 H 0.0 **** 0.06
29680 H 74.26165314975508 37.83975904231326 42.287827475268884 H 0.0 **** 0.06
29681 C 61.36922558215389 48.97136124276366 49.98550863358207 C 0.0 **** -0.24
29682 H 62.19237975739048 48.59675268022437 50.594830710914366 H 0.0 **** 0.06
29683 H 61.72255234947539 49.15436317266304 48.97097860972465 H 0.0 **** 0.06
29684 H 60.99446828627623 49.90131046875692 50.41419285589541 H 0.0 **** 0.06
29685 H 60.56750382397496 48.23219290231819 49.96433853643289 H 0.0 **** 0.06
29686 C 115.76531472309472 37.14016496085429 24.580413107524997 C 0.0 **** -0.24
29687 H 116.84112077029695 37.304045142695585 24.646966626938713 H 0.0 **** 0.06
29688 H 115.56967944368631 36.0856558328571 24.388335017226495 H 0.0 **** 0.06
29689 H 115.35686624286103 37.73985539261291 23.766057525343953 H 0.0 **** 0.06
29690 H 115.29445719599588 37.433403846886065 25.518065914737477 H 0.0 **** 0.06
29691 C 71.2456636107938 107.2329012373143 112.33197922986577 C 0.0 **** -0.24
29692 H 70.39857183832703 107.68842724181224 112.84512765938162 H 0.0 **** 0.06
29693 H 71.83733692832092 108.00984737130672 111.84774157853734 H 0.0 **** 0.06
29694 H 70.88076278889288 106.53177365263954 111.58095510040597 H 0.0 **** 0.06
29695 H 71.86425045450346 106.70034168390718 113.05481557460894 H 0.0 **** 0.06
29696 C 90.60887084627859 34.2118832439225 10.90288373160601 C 0.0 **** -0.24
29697 H 89.67855566948339 34.607911864745574 11.3096818322432 H 0.0 **** 0.06
29698 H 91.3011441455501 35.03312542893184 10.714539057751836 H 0.0 **** 0.06
29699 H 90.40320169442126 33.68681711561882 9.969852922120083 H 0.0 **** 0.06
29700 H 91.05201680848396 33.520030648123 11.619818455880562 H 0.0 **** 0.06
29701 C 64.12682318305059 76.22768802963647 0.25640000451113565 C 0.0 **** -0.24
29702 H 63.32366857343641 76.81079449976808 0.708021831371326 H 0.0 **** 0.06
29703 H 64.94073056585512 76.11538350327612 0.9734440980067944 H 0.0 **** 0.06
29704 H 64.49244763069578 76.74048291870292 -0.6326409477446759 H 0.0 **** 0.06
29705 H 63.74834776330391 75.24398758100965 -0.02133095881366387 H 0.0 **** 0.06
29706 C 39.91029888343493 84.09745334231246 100.94437986936651 C 0.0 **** -0.24
29707 H 39.09855212275531 83.59594382097771 100.41773854250862 H 0.0 **** 0.06
29708 H 40.82797549624675 84.0142828329503 100.3602650499708 H 0.0 **** 0.06
29709 H 40.05609398861495 83.62959827430069 101.91801847299318 H 0.0 **** 0.06
29710 H 39.660709229054675 85.14960850597271 101.08095298673106 H 0.0 **** 0.06
29711 C 121.30966316985916 45.36305107286621 101.97295393234708 C 0.0 **** -0.24
29712 H 121.05089350784138 45.40398376214358 103.03014236709265 H 0.0 **** 0.06
29713 H 121.19364975591706 46.353541294249865 101.53140688978056 H 0.0 **** 0.06
29714 H 120.65131897416515 44.65973705435184 101.46376538418895 H 0.0 **** 0.06
29715 H 122.34377082660757 45.035620612755736 101.86436125263629 H 0.0 **** 0.06
29716 C 64.65616660394642 56.080817802324816 85.2723873379972 C 0.0 **** -0.24
29717 H 63.710756481890115 56.10859931716715 84.72841240921451 H 0.0 **** 0.06
29718 H 64.47276960799908 55.771361948543586 86.30175722857058 H 0.0 **** 0.06
29719 H 65.10847967096727 57.07199880427663 85.26505500896235 H 0.0 **** 0.06
29720 H 65.32929671570756 55.369938872218825 84.79342941385391 H 0.0 **** 0.06
29721 C 96.98140432514681 98.81720895700929 96.86548424854641 C 0.0 **** -0.24
29722 H 97.85146984015347 99.44513739731971 97.05759251614006 H 0.0 **** 0.06
29723 H 97.28427767436106 97.76946333447941 96.86290988773902 H 0.0 **** 0.06
29724 H 96.55456413025168 99.0745775940631 95.89626315682318 H 0.0 **** 0.06
29725 H 96.23741273928418 98.97848258604279 97.6455958072599 H 0.0 **** 0.06
29726 C 58.70776914849121 36.91969375786158 65.29314036307768 C 0.0 **** -0.24
29727 H 58.101491981689406 37.714904443176664 64.86047696286849 H 0.0 **** 0.06
29728 H 58.109890174924985 36.355882491764646 66.00956992951932 H 0.0 **** 0.06
29729 H 59.56826819890466 37.355391973879705 65.80117301086065 H 0.0 **** 0.06
29730 H 59.05224568276061 36.25354807928406 64.50199146965917 H 0.0 **** 0.06
29731 C 93.44711903200458 41.25104805169289 29.636534051802556 C 0.0 **** -0.24
29732 H 92.99312282962477 40.542360436093425 30.32858749999204 H 0.0 **** 0.06
29733 H 92.93530192990472 42.21070890651519 29.710709662047122 H 0.0 **** 0.06
29734 H 93.36119285669062 40.87004171235629 28.61893660377433 H 0.0 **** 0.06
29735 H 94.4997770106335 41.379051748252174 29.88770712314107 H 0.0 **** 0.06
29736 C 53.1282029976837 115.45748892717009 60.070070374539426 C 0.0 **** -0.24
29737 H 52.44092749240754 115.94652060381075 60.76199899954557 H 0.0 **** 0.06
29738 H 53.42116951548627 114.48866981445937 60.47468112068026 H 0.0 **** 0.06
29739 H 54.01320767984318 116.07940467836539 59.93826681029097 H 0.0 **** 0.06
29740 H 52.6353067954137 115.31703093873328 59.108554620489684 H 0.0 **** 0.06
29741 C 28.122226615185525 44.72567017627742 92.01008146493021 C 0.0 **** -0.24
29742 H 27.31898261533854 44.315194206566474 92.62250639673498 H 0.0 **** 0.06
29743 H 27.733717215869092 45.544570562398576 91.40424705146687 H 0.0 **** 0.06
29744 H 28.5153103122052 43.94598993632653 91.3583655862346 H 0.0 **** 0.06
29745 H 28.91803257150923 45.09567474342535 92.65631763903154 H 0.0 **** 0.06
29746 C 52.48599446528543 109.60545048731746 102.92997589154788 C 0.0 **** -0.24
29747 H 51.475672662613675 110.01128808432111 102.88481645923758 H 0.0 **** 0.06
29748 H 53.16495219082516 110.26088560402147 102.3852972006907 H 0.0 **** 0.06
29749 H 52.4999631889241 108.61270394651541 102.48106627657685 H 0.0 **** 0.06
29750 H 52.80266196985585 109.53716709524065 103.97082400144697 H 0.0 **** 0.06
29751 C 85.1222330924569 10.465548243254574 113.75439909409886 C 0.0 **** -0.24
29752 H 85.96047868461 11.092840214426715 114.05950707219276 H 0.0 **** 0.06
29753 H 84.32051437674568 10.54850079850641 114.48943227588497 H 0.0 **** 0.06
29754 H 85.45014922243087 9.428421852662467 113.6898272173311 H 0.0 **** 0.06
29755 H 84.75836478468705 10.793912271653824 112.78069347200757 H 0.0 **** 0.06
29756 C 6.76102066164384 97.30661646316675 24.910715791651683 C 0.0 **** -0.24
29757 H 7.537576689215541 98.05236201386231 24.738387447985588 H 0.0 **** 0.06
29758 H 5.79623132880792 97.80420469396458 25.009726947374872 H 0.0 **** 0.06
29759 H 6.98220303371329 96.75677972007871 25.825071618267884 H 0.0 **** 0.06
29760 H 6.729147352052436 96.61478092227851 24.06823406803295 H 0.0 **** 0.06
29761 C 28.760449265470157 45.2728878125107 75.12160001030584 C 0.0 **** -0.24
29762 H 29.262956830636227 46.21483736705227 75.33856964878674 H 0.0 **** 0.06
29763 H 29.115731829985492 44.50544702862038 75.80866449334886 H 0.0 **** 0.06
29764 H 28.97670479179274 44.972626361143114 74.09665402169048 H 0.0 **** 0.06
29765 H 27.684687195641345 45.39988327241548 75.24322580427581 H 0.0 **** 0.06
29766 C 36.167989708639595 90.53273591033943 49.947293561878354 C 0.0 **** -0.24
29767 H 35.093400455539495 90.52479646494183 50.130106624880796 H 0.0 **** 0.06
29768 H 36.649776005814545 91.21516749469328 50.6461402564619 H 0.0 **** 0.06
29769 H 36.35923805518678 90.86253070468794 48.9251544919798 H 0.0 **** 0.06
29770 H 36.56755520984831 89.52745012525433 50.08416085134517 H 0.0 **** 0.06
29771 C 55.590360339305334 105.21515725002608 24.770719391194348 C 0.0 **** -0.24
29772 H 55.687545706354456 104.43704632331863 24.01385541526986 H 0.0 **** 0.06
29773 H 54.75397003894669 105.86647647613496 24.515793376237525 H 0.0 **** 0.06
29774 H 56.508634428591506 105.8002379330977 24.810240841312634 H 0.0 **** 0.06
29775 H 55.41007208410265 104.75621639092162 25.743286195569226 H 0.0 **** 0.06
29776 C 120.60422590521236 40.683671598083826 2.912302028097102 C 0.0 **** -0.24
29777 H 120.03290880213567 40.21939369458216 2.1083464859159733 H 0.0 **** 0.06
29778 H 121.61026063750404 40.26446814962114 2.932434112132981 H 0.0 **** 0.06
29779 H 120.11069915698013 40.492890430597804 3.8648919524471665 H 0.0 **** 0.06
29780 H 120.66094345100802 41.7589540787564 2.7419276347939956 H 0.0 **** 0.06
29781 C 9.170947494668894 41.49772340089805 47.56324206154508 C 0.0 **** -0.24
29782 H 10.244518851472094 41.30818629590573 47.56623462916795 H 0.0 **** 0.06
29783 H 8.776548633354537 41.334101690141836 46.56033519483472 H 0.0 **** 0.06
29784 H 8.982538349891684 42.52779283502065 47.86524809318573 H 0.0 **** 0.06
29785 H 8.681604719538882 40.81900587302823 48.261997302919696 H 0.0 **** 0.06
29786 C 22.683725315664958 36.63906942155472 49.27774474158849 C 0.0 **** -0.24
29787 H 21.95551853814368 35.83218943506742 49.197962147186445 H 0.0 **** 0.06
29788 H 22.33365571088109 37.501785700857056 48.71057578785053 H 0.0 **** 0.06
29789 H 23.642010219375607 36.305365834445155 48.87791384854461 H 0.0 **** 0.06
29790 H 22.804162049475167 36.91779861660436 50.32476993471357 H 0.0 **** 0.06
29791 C 46.89031084668929 66.96375480493933 90.7783115658996 C 0.0 **** -0.24
29792 H 46.25823630452814 67.84164547163192 90.64124404400133 H 0.0 **** 0.06
29793 H 46.62418662050469 66.46641800631699 91.71025557498444 H 0.0 **** 0.06
29794 H 47.935729606283886 67.27051306618334 90.81565736938887 H 0.0 **** 0.06
29795 H 46.74366505203368 66.27698874218129 89.94491785863033 H 0.0 **** 0.06
29796 C 93.8344683935317 54.044985731552515 17.095759258769988 C 0.0 **** -0.24
29797 H 94.45313410548967 54.73804208634732 17.66551035434844 H 0.0 **** 0.06
29798 H 93.00404585545218 54.58647764436671 16.642839160309904 H 0.0 **** 0.06
29799 H 93.44670785668892 53.273740772063405 17.76136777092637 H 0.0 **** 0.06
29800 H 94.43593714683757 53.58137958250495 16.31363688921516 H 0.0 **** 0.06
29801 C 82.73450424959957 25.798774054890117 99.10057781576 C 0.0 **** -0.24
29802 H 82.70031890067004 24.751130587242272 98.80252378595554 H 0.0 **** 0.06
29803 H 82.80351025615244 26.426990326761086 98.21269033662213 H 0.0 **** 0.06
29804 H 83.60536312351829 25.967849976335685 99.733920425799 H 0.0 **** 0.06
29805 H 81.82882471805756 26.04912532922097 99.65317671466329 H 0.0 **** 0.06
29806 C 93.81804493841634 81.8512789381115 103.5423238472952 C 0.0 **** -0.24
29807 H 94.6106165885956 81.74349094505297 102.8017661919327 H 0.0 **** 0.06
29808 H 93.91320326330771 82.81826396942739 104.03711531251611 H 0.0 **** 0.06
29809 H 93.90031346963866 81.0550058247605 104.28145419627917 H 0.0 **** 0.06
29810 H 92.8489128400189 81.78989841761583 103.04802831598212 H 0.0 **** 0.06
29811 C 70.69789000426135 72.05155066103787 38.70463607412523 C 0.0 **** -0.24
29812 H 69.75635930190045 72.55639250638755 38.490093967107015 H 0.0 **** 0.06
29813 H 70.90625062511883 71.32444390393134 37.91968682093329 H 0.0 **** 0.06
29814 H 70.62516040057127 71.53954243679435 39.66439735482308 H 0.0 **** 0.06
29815 H 71.50246872225328 72.7853340724862 38.74424236848864 H 0.0 **** 0.06
29816 C 52.81376750563763 38.7475684734834 55.6255944011844 C 0.0 **** -0.24
29817 H 51.91439413237313 39.27892587318223 55.31403771954689 H 0.0 **** 0.06
29818 H 53.07508230987587 38.00497069100808 54.871236494995856 H 0.0 **** 0.06
29819 H 52.62887870793968 38.24892111982746 56.57755695711677 H 0.0 **** 0.06
29820 H 53.634033913830024 39.455704378655525 55.73868379848102 H 0.0 **** 0.06
29821 C 119.71278788509765 40.22622586229707 18.725133892994563 C 0.0 **** -0.24
29822 H 120.18593561172513 41.0554763509663 19.25242948501206 H 0.0 **** 0.06
29823 H 118.65422704497654 40.44412057577452 18.581034671153873 H 0.0 **** 0.06
29824 H 119.81954515617745 39.31475829839283 19.312758295414696 H 0.0 **** 0.06
29825 H 120.1916984175867 40.09231865260301 17.755986750423176 H 0.0 **** 0.06
29826 C 77.15091789043686 84.19048776957133 106.18589640017815 C 0.0 **** -0.24
29827 H 76.34979107468601 84.82874959737882 106.55729149768864 H 0.0 **** 0.06
29828 H 77.87782210033546 84.79720028156132 105.64587797004734 H 0.0 **** 0.06
29829 H 76.73575936712696 83.43778468518097 105.51595151053846 H 0.0 **** 0.06
29830 H 77.64194565800929 83.69808098706018 107.02597143445963 H 0.0 **** 0.06
29831 C 117.98534730757976 92.94320795792487 83.09694594919549 C 0.0 **** -0.24
29832 H 117.23810463478671 92.78072240041087 82.31993850992887 H 0.0 **** 0.06
29833 H 118.98087293242398 92.76944531829065 82.68500768255697 H 0.0 **** 0.06
29834 H 117.80812336130296 92.2530055911295 83.92083307194929 H 0.0 **** 0.06
29835 H 117.91578112081265 93.96858067222661 83.45963594327853 H 0.0 **** 0.06
29836 C 114.77163272599842 29.023935998675796 29.378941770023204 C 0.0 **** -0.24
29837 H 115.28718465856332 29.85667748908 29.85762176469278 H 0.0 **** 0.06
29838 H 113.75246440776357 29.32161080393135 29.13161328998052 H 0.0 **** 0.06
29839 H 114.74716379782592 28.172848545654347 30.05918665487559 H 0.0 **** 0.06
29840 H 115.3010296861587 28.74572936406014 28.467488177971433 H 0.0 **** 0.06
29841 C 3.08110767502248 53.516465412051716 6.037413589202117 C 0.0 **** -0.24
29842 H 3.1086141812030377 53.422480870147496 4.95198096284264 H 0.0 **** 0.06
29843 H 3.251598870545763 52.54041345412004 6.49145436243009 H 0.0 **** 0.06
29844 H 2.106475258192347 53.895640148720176 6.344919500802746 H 0.0 **** 0.06
29845 H 3.858140183965048 54.20916771225977 6.362505537200775 H 0.0 **** 0.06
29846 C 8.115406362255897 121.83813457985761 99.40499371844572 C 0.0 **** -0.24
29847 H 8.872820501265409 121.71889004909687 100.17927224291557 H 0.0 **** 0.06
29848 H 7.56057326752051 120.90575136554398 99.29425277057965 H 0.0 **** 0.06
29849 H 8.598780496475484 122.08734077351235 98.4604523396261 H 0.0 **** 0.06
29850 H 7.431685317609322 122.63812395751532 99.68569130732607 H 0.0 **** 0.06
29851 C 22.687086521977058 36.64213370745077 62.853754069521045 C 0.0 **** -0.24
29852 H 23.041725288435416 36.95156487335738 63.83633452210755 H 0.0 **** 0.06
29853 H 22.59694300364945 35.55583401475537 62.826206378371424 H 0.0 **** 0.06
29854 H 23.395824014845715 36.967185020170824 62.09231103215738 H 0.0 **** 0.06
29855 H 21.71346884997407 37.09273556742335 62.66077659522561 H 0.0 **** 0.06
29856 C 2.829394863220136 54.67876684611315 73.01608237206665 C 0.0 **** -0.24
29857 H 2.046071007540249 54.11883273383023 72.50607238446668 H 0.0 **** 0.06
29858 H 2.379664724137852 55.33887238994913 73.758354038135 H 0.0 **** 0.06
29859 H 3.3826783343361644 55.27287522571777 72.28881327753635 H 0.0 **** 0.06
29860 H 3.508724442379652 53.98532929085445 73.51077958402783 H 0.0 **** 0.06
29861 C 121.36786444219447 122.90803870087765 57.389375430695736 C 0.0 **** -0.24
29862 H 122.02283915634422 123.72121407396978 57.07418227816743 H 0.0 **** 0.06
29863 H 121.34008458251232 122.14313563947687 56.61335849122361 H 0.0 **** 0.06
29864 H 120.3622707005709 123.29543066543141 57.55544300976027 H 0.0 **** 0.06
29865 H 121.74808880487478 122.47394155262252 58.3140574322683 H 0.0 **** 0.06
29866 C 97.62710485725438 120.28019219294917 81.33994379576149 C 0.0 **** -0.24
29867 H 97.27044656672659 120.93155491645122 80.54132045756131 H 0.0 **** 0.06
29868 H 97.50493650514694 119.23928504360526 81.04048276896303 H 0.0 **** 0.06
29869 H 97.05229912395119 120.46789243045774 82.24632155695843 H 0.0 **** 0.06
29870 H 98.68121915519694 120.48269091063939 81.528594278044 H 0.0 **** 0.06
29871 C 73.29563583102265 112.84571654459347 22.61054445702166 C 0.0 **** -0.24
29872 H 73.65821971271282 113.83965386461813 22.350996452200604 H 0.0 **** 0.06
29873 H 73.25287529093521 112.22921479961411 21.711338157597254 H 0.0 **** 0.06
29874 H 72.29918554687208 112.92440275868415 23.04517534981227 H 0.0 **** 0.06
29875 H 73.97237205791953 112.38949066766924 23.332942358831758 H 0.0 **** 0.06
29876 C 22.6531993436179 50.634311005507584 116.96217273505684 C 0.0 **** -0.24
29877 H 22.2602486936577 50.997394863499665 116.01310448401287 H 0.0 **** 0.06
29878 H 22.46627834257432 49.563860270123826 117.04648441501192 H 0.0 **** 0.06
29879 H 22.160728647403097 51.155475179945654 117.78325935383063 H 0.0 **** 0.06
29880 H 23.726914285583078 50.82036253993249 117.0061480379645 H 0.0 **** 0.06
29881 C 46.27615284591343 73.84308926593776 70.7754925318452 C 0.0 **** -0.24
29882 H 45.246906958272575 74.14023288309265 70.97547316963039 H 0.0 **** 0.06
29883 H 46.74306385865299 73.50410762410756 71.70011312730824 H 0.0 **** 0.06
29884 H 46.83017740870321 74.69534991990344 70.3796764529726 H 0.0 **** 0.06
29885 H 46.28551788550266 73.03386624928206 70.0451425300032 H 0.0 **** 0.06
29886 C 48.26860131084521 14.876918331030197 115.58973532132889 C 0.0 **** -0.24
29887 H 49.25512090326134 15.311734752511256 115.42567576079928 H 0.0 **** 0.06
29888 H 48.377230257549144 13.899599430481203 116.06013433530549 H 0.0 **** 0.06
29889 H 47.756632833607966 14.766512782991299 114.6345162220978 H 0.0 **** 0.06
29890 H 47.687324756728884 15.531256294407171 116.24044045966573 H 0.0 **** 0.06
29891 C 35.60692208743376 8.081899299812221 5.73762170036326 C 0.0 **** -0.24
29892 H 35.830743643306356 7.393215264648688 4.922156811118594 H 0.0 **** 0.06
29893 H 34.54031404686213 8.30624445689233 5.740821625016874 H 0.0 **** 0.06
29894 H 36.17277689746293 9.004164749325582 5.599246923977596 H 0.0 **** 0.06
29895 H 35.885468824482466 7.6239080496794145 6.686716236403289 H 0.0 **** 0.06
29896 C 18.580753427077553 37.793843410630984 24.354129134945907 C 0.0 **** -0.24
29897 H 19.11603358529989 38.67562150264331 24.70623033060795 H 0.0 **** 0.06
29898 H 17.57301632591593 37.789853649889466 24.771842945386112 H 0.0 **** 0.06
29899 H 19.10972924471767 36.89622739465189 24.67198554389364 H 0.0 **** 0.06
29900 H 18.522683550354856 37.81496137744071 23.26549344143777 H 0.0 **** 0.06
29901 C 24.06034868235264 47.50165398938418 20.860759399294523 C 0.0 **** -0.24
29902 H 23.657815416189038 48.182889415299684 21.609544349060016 H 0.0 **** 0.06
29903 H 24.654593416798946 46.73158172666267 21.352751896983563 H 0.0 **** 0.06
29904 H 24.68827632885572 48.0567532886657 20.163739776571717 H 0.0 **** 0.06
29905 H 23.23883387533172 47.033820640699815 20.316881504169316 H 0.0 **** 0.06
29906 C 62.90909342018233 114.98564545158226 3.9693603520919964 C 0.0 **** -0.24
29907 H 62.06219985184279 115.01450957217787 3.283530292387809 H 0.0 **** 0.06
29908 H 62.87654045542891 115.85697075271068 4.622975833720943 H 0.0 **** 0.06
29909 H 63.838211139806646 114.99389853583929 3.3988860823185405 H 0.0 **** 0.06
29910 H 62.860250083947534 114.0768415189628 4.569772281757082 H 0.0 **** 0.06
29911 C 110.38938660119123 42.40992210254268 98.10745205730993 C 0.0 **** -0.24
29912 H 110.44911194146857 42.05785701672016 99.13678228082631 H 0.0 **** 0.06
29913 H 110.03495674367193 41.602579866975105 97.46757501329193 H 0.0 **** 0.06
29914 H 111.37611507353576 42.730977122569044 97.77577265042345 H 0.0 **** 0.06
29915 H 109.69612935835875 43.249988893372205 98.05091919121716 H 0.0 **** 0.06
29916 C 65.07846453984398 39.80696139687859 66.95547797438527 C 0.0 **** -0.24
29917 H 66.06986234263125 40.23890204711389 67.08756625296348 H 0.0 **** 0.06
29918 H 64.81550860999498 39.81854146426542 65.89701783374842 H 0.0 **** 0.06
29919 H 64.3499974859582 40.390620462086304 67.51772571230867 H 0.0 **** 0.06
29920 H 65.07956775879353 38.77873927175164 67.31873519744614 H 0.0 **** 0.06
29921 C 106.8070184891476 17.130182274133855 32.90085247346487 C 0.0 **** -0.24
29922 H 106.09669540044945 16.45713453985371 32.42007539821817 H 0.0 **** 0.06
29923 H 107.77963968527035 16.64136693465763 32.97188331444309 H 0.0 **** 0.06
29924 H 106.45155478295044 17.379686731740964 33.90057132553323 H 0.0 **** 0.06
29925 H 106.90061528217257 18.04149032833385 32.31003694502014 H 0.0 **** 0.06
29926 C 97.56054051660631 33.659138451555464 107.62737467884831 C 0.0 **** -0.24
29927 H 97.6050202220841 33.347781146116176 108.67135309304223 H 0.0 **** 0.06
29928 H 96.85960155071547 34.486944398160915 107.52516641042592 H 0.0 **** 0.06
29929 H 97.22799448517446 32.82278938815904 107.01305061633096 H 0.0 **** 0.06
29930 H 98.55047781664325 33.977803248371515 107.30154255305482 H 0.0 **** 0.06
29931 C 1.1559495425982789 64.08957471584074 10.146886984778234 C 0.0 **** -0.24
29932 H 0.9545674983809818 63.023580389707206 10.037707708393896 H 0.0 **** 0.06
29933 H 0.47585634548269695 64.65450103190716 9.509911969290158 H 0.0 **** 0.06
29934 H 2.1853238679619835 64.29672850066129 9.853662605927411 H 0.0 **** 0.06
29935 H 1.008342820694054 64.3815137288222 11.186380874382166 H 0.0 **** 0.06
29936 C 59.00337010393021 101.23434535755973 41.37404000208085 C 0.0 **** -0.24
29937 H 57.94695939616206 101.40952431483362 41.578958248274034 H 0.0 **** 0.06
29938 H 59.19122221766746 101.36123921813487 40.30843305082459 H 0.0 **** 0.06
29939 H 59.26788376168682 100.21957230561009 41.672894373880524 H 0.0 **** 0.06
29940 H 59.60469539483482 101.94747458817051 41.93772368142322 H 0.0 **** 0.06
29941 C 9.082716863287843 27.48529690076603 110.85164782045177 C 0.0 **** -0.24
29942 H 9.586530109812259 27.282740691309158 109.90590421605346 H 0.0 **** 0.06
29943 H 8.290663199466167 28.21676131414401 110.69076425453086 H 0.0 **** 0.06
29944 H 9.802373407041387 27.88014880699015 111.56873647211802 H 0.0 **** 0.06
29945 H 8.65194225421098 26.56166540080764 111.2382584734171 H 0.0 **** 0.06
29946 C 121.10983426330253 80.48609373190405 50.763735303939264 C 0.0 **** -0.24
29947 H 120.60540913751171 81.00130628139839 51.58172618187616 H 0.0 **** 0.06
29948 H 121.60439270038285 79.59286466018791 51.1462631079164 H 0.0 **** 0.06
29949 H 121.85087206183941 81.15023680198121 50.3190751390162 H 0.0 **** 0.06
29950 H 120.37795058465447 80.20088666627917 50.00868109121273 H 0.0 **** 0.06
29951 C 102.99780280364651 79.25697507344859 75.41850771968927 C 0.0 **** -0.24
29952 H 103.55027842278395 79.49284278967451 74.50912067111972 H 0.0 **** 0.06
29953 H 103.49185190263732 79.71978982948553 76.27397005283967 H 0.0 **** 0.06
29954 H 102.9696584877548 78.17633577071507 75.55566187911529 H 0.0 **** 0.06
29955 H 101.98147435130616 79.63980361972602 75.33545113774693 H 0.0 **** 0.06
29956 C 74.75463472732355 54.38362148155335 46.65114242637307 C 0.0 **** -0.24
29957 H 75.20120685000481 54.2882592403742 47.64056248655865 H 0.0 **** 0.06
29958 H 74.08020435180075 55.240440446213086 46.63736942844321 H 0.0 **** 0.06
29959 H 74.19604846703834 53.477670674130025 46.41567854992243 H 0.0 **** 0.06
29960 H 75.54060364192573 54.52877530270712 45.910377341538975 H 0.0 **** 0.06
29961 C 67.20769696577409 89.8444389734657 123.72435976738453 C 0.0 **** -0.24
29962 H 67.54116052466891 89.94108156851924 122.691902075657 H 0.0 **** 0.06
29963 H 66.32595034406678 89.20395763271809 123.76309363946075 H 0.0 **** 0.06
29964 H 66.9589526007291 90.82944005310912 124.11910628294694 H 0.0 **** 0.06
29965 H 68.0037382841623 89.40391517587865 124.3241244511 H 0.0 **** 0.06
29966 C 73.21541260545058 72.66636864733401 54.43409390790798 C 0.0 **** -0.24
29967 H 73.50599824717784 71.99024333351318 55.237933588852286 H 0.0 **** 0.06
29968 H 72.15385969794232 72.53902474730447 54.21755115324606 H 0.0 **** 0.06
29969 H 73.79805456423355 72.44046007435203 53.54027992184385 H 0.0 **** 0.06
29970 H 73.40293658175054 73.69635999992153 54.73962025409611 H 0.0 **** 0.06
29971 C 123.59606101226251 97.60249621528064 118.38659784835593 C 0.0 **** -0.24
29972 H 122.86205513747055 96.90380392111311 118.78804169297858 H 0.0 **** 0.06
29973 H 123.23662080211894 98.0027166618799 117.43860837894059 H 0.0 **** 0.06
29974 H 124.54077461626596 97.08216902272514 118.22711256362348 H 0.0 **** 0.06
29975 H 123.74568630010899 98.41871510105102 119.09336776283163 H 0.0 **** 0.06
29976 C 12.912462194289446 103.88105521992132 41.34017076112608 C 0.0 **** -0.24
29977 H 12.646616622350706 102.83103824163868 41.22085961749435 H 0.0 **** 0.06
29978 H 13.997680489201116 103.98602059059318 41.31301743951304 H 0.0 **** 0.06
29979 H 12.536066834105753 104.24464597901098 42.29602272080522 H 0.0 **** 0.06
29980 H 12.469507279389916 104.46151965411589 40.530701363052174 H 0.0 **** 0.06
29981 C 84.87106583299017 108.31999356878285 102.95769740015044 C 0.0 **** -0.24
29982 H 84.08379899313843 108.06947906192758 103.66809874044634 H 0.0 **** 0.06
29983 H 85.741904174059 108.69374057946982 103.4972050618886 H 0.0 **** 0.06
29984 H 84.51176124048087 109.08718722777328 102.27202343089425 H 0.0 **** 0.06
29985 H 85.14915681995039 107.42908189047071 102.39391505321237 H 0.0 **** 0.06
29986 C 115.6419040369795 68.15600733873521 47.9913080923906 C 0.0 **** -0.24
29987 H 115.5050615007926 67.25311248562326 47.397305027652834 H 0.0 **** 0.06
29988 H 116.69098282136602 68.24902659862857 48.27431673784858 H 0.0 **** 0.06
29989 H 115.02666617462859 68.09736430430098 48.88916279898925 H 0.0 **** 0.06
29990 H 115.34537506806572 69.02582851866225 47.40415951257856 H 0.0 **** 0.06
29991 C 35.84711831923596 67.21122200251773 55.930182182601555 C 0.0 **** -0.24
29992 H 35.82296179647207 66.70760315486734 54.96345768117757 H 0.0 **** 0.06
29993 H 34.88072704565417 67.6770880822521 56.12141862694975 H 0.0 **** 0.06
29994 H 36.62435039411437 67.97598515763241 55.921051165695275 H 0.0 **** 0.06
29995 H 36.062258877040534 66.48365023495026 56.712714332192576 H 0.0 **** 0.06
29996 C 95.75184139614089 56.78480419140507 13.9150615426733 C 0.0 **** -0.24
29997 H 96.50398393765829 56.15898552451779 14.395130585696961 H 0.0 **** 0.06
29998 H 94.77315696932106 56.57046806956197 14.345431817887686 H 0.0 **** 0.06
29999 H 95.73253864191827 56.57354832825922 12.84589314054125 H 0.0 **** 0.06
30000 H 95.99770933925697 57.83448644326779 14.073679941396676 H 0.0 **** 0.06
30001 C 47.71720691174312 62.46966582300486 55.07146116762121 C 0.0 **** -0.24
30002 H 48.75663396425358 62.231333995612175 54.8423975645333 H 0.0 **** 0.06
30003 H 47.67424502700209 63.06507353225861 55.98336008376998 H 0.0 **** 0.06
30004 H 47.156267251033285 61.54634585338712 55.213347019757975 H 0.0 **** 0.06
30005 H 47.28499049808363 63.03582681237975 54.24653123128141 H 0.0 **** 0.06
30006 C 104.81187815309522 13.862022735836547 42.055750813125584 C 0.0 **** -0.24
30007 H 103.81017045187883 13.964432163308516 41.638835141437426 H 0.0 **** 0.06
30008 H 104.79573827171282 14.134276491765775 43.11063803632092 H 0.0 **** 0.06
30009 H 105.49647512776863 14.519960098929346 41.519940077118946 H 0.0 **** 0.06
30010 H 105.14407346422945 12.82877951441759 41.95147489966874 H 0.0 **** 0.06
30011 C 83.88592766460643 97.79332329814264 9.80840193561393 C 0.0 **** -0.24
30012 H 84.87426256021698 97.33396830262018 9.835026205650571 H 0.0 **** 0.06
30013 H 83.81620108772857 98.45274535265332 8.942419518242328 H 0.0 **** 0.06
30014 H 83.72999337205019 98.3710515873342 10.718905188587367 H 0.0 **** 0.06
30015 H 83.12640050327659 97.01614426884868 9.73594609119414 H 0.0 **** 0.06
30016 C 74.83737541797689 24.163457479125263 45.9265070552886 C 0.0 **** -0.24
30017 H 74.18402589161607 25.036760399143844 45.933520770242815 H 0.0 **** 0.06
30018 H 74.60589851841246 23.531471012508113 46.78470303079951 H 0.0 **** 0.06
30019 H 75.87624139508874 24.48675305728751 45.98216755492147 H 0.0 **** 0.06
30020 H 74.6800149860497 23.599964503016885 45.00694843551834 H 0.0 **** 0.06
30021 C 33.79190839990753 96.52412259317873 12.018906986048062 C 0.0 **** -0.24
30022 H 33.27059065761509 97.35589066587397 11.5447304253473 H 0.0 **** 0.06
30023 H 33.38873352758844 95.58247371468417 11.646069048717106 H 0.0 **** 0.06
30024 H 33.65180240794311 96.57635063394065 13.098590387929747 H 0.0 **** 0.06
30025 H 34.854580339895875 96.5828445318694 11.786618991214056 H 0.0 **** 0.06
30026 C 92.75912705555663 70.92361045255052 37.43280459720316 C 0.0 **** -0.24
30027 H 93.5554608671417 71.40976136523949 36.86834865453304 H 0.0 **** 0.06
30028 H 91.79255779003587 71.23757227330026 37.0402482646991 H 0.0 **** 0.06
30029 H 92.83496507001709 71.20627113664699 38.483115635797446 H 0.0 **** 0.06
30030 H 92.85680480507612 69.8417669248148 37.33889304143679 H 0.0 **** 0.06
30031 C 85.78000612728502 84.23328995357951 55.515286414137904 C 0.0 **** -0.24
30032 H 86.20642936120683 84.11300737667722 54.51975037938722 H 0.0 **** 0.06
30033 H 84.97038566157025 84.96384180422626 55.47696489005247 H 0.0 **** 0.06
30034 H 86.55206300567292 84.58171102038466 56.20100765582306 H 0.0 **** 0.06
30035 H 85.39056285961809 83.27654782614559 55.86205738377163 H 0.0 **** 0.06
30036 C 117.48187365532145 52.16434683775685 76.6393618742671 C 0.0 **** -0.24
30037 H 118.1289454657689 51.9364452907505 75.7929443600574 H 0.0 **** 0.06
30038 H 116.65638611045487 52.794243807683245 76.30680381206604 H 0.0 **** 0.06
30039 H 118.05602509505954 52.68940206038722 77.40353260660785 H 0.0 **** 0.06
30040 H 117.0881354127343 51.2367062975334 77.05498061945417 H 0.0 **** 0.06
30041 C 36.54960952701806 68.49647154976088 101.03982203813189 C 0.0 **** -0.24
30042 H 37.2537864828657 69.15583972479942 100.53157290921412 H 0.0 **** 0.06
30043 H 35.53349273354305 68.74550792993887 100.7329584181309 H 0.0 **** 0.06
30044 H 36.64624186109294 68.62500077272 102.11742450813091 H 0.0 **** 0.06
30045 H 36.76638010731081 67.4618433908148 100.7757373052469 H 0.0 **** 0.06
30046 C 119.59509342552813 6.055765745161011 10.600104452740307 C 0.0 **** -0.24
30047 H 118.62937219490577 5.653277529945285 10.90588615456133 H 0.0 **** 0.06
30048 H 120.275767656796 5.234631015124634 10.372534417520392 H 0.0 **** 0.06
30049 H 120.00991272481029 6.658020841159299 11.4093915110331 H 0.0 **** 0.06
30050 H 119.46519998886095 6.6773916936852515 9.715038634009684 H 0.0 **** 0.06
30051 C 101.22217474651814 114.49027808387774 36.03242675328725 C 0.0 **** -0.24
30052 H 101.00396474927442 113.82265237456389 35.197663237501615 H 0.0 **** 0.06
30053 H 100.72269094531208 114.12407775363931 36.930043053184534 H 0.0 **** 0.06
30054 H 100.86110657256427 115.49248236743534 35.79907269671301 H 0.0 **** 0.06
30055 H 102.29841943339324 114.52106633932553 36.20152480337953 H 0.0 **** 0.06
30056 C 72.73082851514079 26.23728042938029 78.59822366571339 C 0.0 **** -0.24
30057 H 72.06745636592905 26.11950053493638 79.45528318274398 H 0.0 **** 0.06
30058 H 73.18630556509007 27.22777088389688 78.62487107805731 H 0.0 **** 0.06
30059 H 72.15808632109531 26.12554281964998 77.67797383333735 H 0.0 **** 0.06
30060 H 73.51115375597564 25.476860214329804 78.63603037811438 H 0.0 **** 0.06
30061 C 14.72414265140523 110.10059994152734 44.832918098932225 C 0.0 **** -0.24
30062 H 15.79144695920749 110.23049684095534 44.65477209670689 H 0.0 **** 0.06
30063 H 14.160590668442609 110.64343167916623 44.07308018525919 H 0.0 **** 0.06
30064 H 14.470418219464875 110.4896221430725 45.81921489376401 H 0.0 **** 0.06
30065 H 14.473836363551925 109.04115254410084 44.78381974135726 H 0.0 **** 0.06
30066 C 29.231298569065387 25.20625564761994 120.45477792211494 C 0.0 **** -0.24
30067 H 29.67174584338764 25.247650729287244 119.45735399784952 H 0.0 **** 0.06
30068 H 29.782134235594327 25.86911210027918 121.12223362032833 H 0.0 **** 0.06
30069 H 29.28321341124598 24.185006331813398 120.83182748862012 H 0.0 **** 0.06
30070 H 28.190169674677065 25.52274302416484 120.4047879937415 H 0.0 **** 0.06
30071 C 67.32669614496226 77.0125698071808 62.860430923314624 C 0.0 **** -0.24
30072 H 67.2390833061344 77.01842170621 63.94624738019141 H 0.0 **** 0.06
30073 H 66.44953183029725 77.48982454459866 62.422326549251636 H 0.0 **** 0.06
30074 H 67.39441214713045 75.98312986486906 62.506672914243566 H 0.0 **** 0.06
30075 H 68.22300699469636 77.55777983314499 62.56539266754855 H 0.0 **** 0.06
30076 C 18.217288321786185 47.889448192471775 72.26208655366507 C 0.0 **** -0.24
30077 H 17.802991262347405 48.46510886865599 71.43502102793366 H 0.0 **** 0.06
30078 H 17.54401565912289 47.067909810917 72.50633295457266 H 0.0 **** 0.06
30079 H 18.33357686696803 48.53537130372126 73.13253243508255 H 0.0 **** 0.06
30080 H 19.19011289175444 47.48872859533651 71.97405536547016 H 0.0 **** 0.06
30081 C 5.351105301801283 4.360215525225328 117.67539502569798 C 0.0 **** -0.24
30082 H 5.855031093376368 3.9871698554497357 116.78512074060737 H 0.0 **** 0.06
30083 H 4.76606716751364 5.243823460273006 117.41876660193134 H 0.0 **** 0.06
30084 H 6.0928044114155995 4.621313841969027 118.43052404030112 H 0.0 **** 0.06
30085 H 4.689253328555267 3.587907338635091 118.06916375954157 H 0.0 **** 0.06
30086 C 104.90249881475219 87.09979153276831 100.04073798298111 C 0.0 **** -0.24
30087 H 104.6061990821187 87.73852239708626 99.20924895291716 H 0.0 **** 0.06
30088 H 105.66668347919477 86.39858514014419 99.70504301067069 H 0.0 **** 0.06
30089 H 104.03476017196579 86.54704451534894 100.40103661050671 H 0.0 **** 0.06
30090 H 105.30234710576204 87.71532881212029 100.84624458278813 H 0.0 **** 0.06
30091 C 67.36402341893647 65.94056273986153 49.64407835147688 C 0.0 **** -0.24
30092 H 68.01567474452952 65.0662223570643 49.64453280907185 H 0.0 **** 0.06
30093 H 66.68711144731002 65.8887816198824 50.49796458967478 H 0.0 **** 0.06
30094 H 66.78417342744272 65.96047587577627 48.72134590973144 H 0.0 **** 0.06
30095 H 67.96867308118901 66.844052864851 49.714313803691994 H 0.0 **** 0.06
30096 C 96.9980190703777 115.69241295624688 29.96679586896991 C 0.0 **** -0.24
30097 H 97.72201996730973 116.47577773339124 29.742940947217107 H 0.0 **** 0.06
30098 H 96.15330727340353 116.12174864902647 30.50561175097718 H 0.0 **** 0.06
30099 H 97.46952096164537 114.92561858494943 30.580360040960926 H 0.0 **** 0.06
30100 H 96.6463513409422 115.2475836833027 29.035258699802142 H 0.0 **** 0.06
30101 C 106.45792603490098 80.88595946733591 34.89726095569907 C 0.0 **** -0.24
30102 H 106.51116252565473 81.91033357679248 34.530074071372745 H 0.0 **** 0.06
30103 H 106.95206201950484 80.2198596855302 34.1892316671619 H 0.0 **** 0.06
30104 H 105.41362442503932 80.59204093946147 35.00427389856489 H 0.0 **** 0.06
30105 H 106.95422383144837 80.82084379799397 35.86530905912978 H 0.0 **** 0.06
30106 C 48.46598297080604 25.438210818303503 5.2667560956900665 C 0.0 **** -0.24
30107 H 48.68170794525102 25.525088071472055 4.202618558522218 H 0.0 **** 0.06
30108 H 48.99167019098621 24.574541633798475 5.675319740629305 H 0.0 **** 0.06
30109 H 47.39258216231528 25.31149439221639 5.410691515031338 H 0.0 **** 0.06
30110 H 48.79699709506511 26.341847891026447 5.779411382043726 H 0.0 **** 0.06
30111 C 58.50627917647756 85.12383594859718 60.89687572722187 C 0.0 **** -0.24
30112 H 57.77107356543729 84.3329667611648 61.04559810568756 H 0.0 **** 0.06
30113 H 58.01410400079449 86.09403252303645 60.95766933540571 H 0.0 **** 0.06
30114 H 58.96720323099778 85.011108033635 59.91493672310867 H 0.0 **** 0.06
30115 H 59.273928206681745 85.05600041812951 61.66786666467013 H 0.0 **** 0.06
30116 C 32.30913150016033 35.20367067537228 120.07662356345492 C 0.0 **** -0.24
30117 H 31.906269106680952 34.313684288001696 120.5612057420361 H 0.0 **** 0.06
30118 H 32.47546149515421 35.97969939918738 120.82390628852517 H 0.0 **** 0.06
30119 H 31.600352559362918 35.563526299654484 119.33026299808616 H 0.0 **** 0.06
30120 H 33.254025842892396 34.957167601739684 119.59232755438867 H 0.0 **** 0.06
30121 C 47.845852222565924 103.97223179494694 78.12375132904057 C 0.0 **** -0.24
30122 H 47.950742389214014 104.61012203365453 79.00100144711031 H 0.0 **** 0.06
30123 H 48.63945826529874 103.22416163379063 78.12224775465393 H 0.0 **** 0.06
30124 H 47.91847479478449 104.57967986347978 77.2219938908976 H 0.0 **** 0.06
30125 H 46.877103865389586 103.47469751004567 78.14920492651682 H 0.0 **** 0.06
30126 C 26.472180511056877 113.37366676742391 6.0122861130967635 C 0.0 **** -0.24
30127 H 25.478026732432767 113.27486987543071 5.575991299250916 H 0.0 **** 0.06
30128 H 27.173189369274297 113.7081563874973 5.247803306294884 H 0.0 **** 0.06
30129 H 26.793889740922324 112.4081673972033 6.403106867377829 H 0.0 **** 0.06
30130 H 26.44210857633888 114.101852035609 6.822556795800409 H 0.0 **** 0.06
30131 C 81.00778229470912 86.45056429365353 55.67069008973023 C 0.0 **** -0.24
30132 H 81.57391679345619 86.07522065960688 54.818433336781 H 0.0 **** 0.06
30133 H 80.75874474805127 87.49970196833063 55.50747791564764 H 0.0 **** 0.06
30134 H 81.6072788065328 86.35481877113531 56.575977577012665 H 0.0 **** 0.06
30135 H 80.09064721395244 85.8716665999533 55.77946237622808 H 0.0 **** 0.06
30136 C 50.24841550921549 24.37681810256106 98.28859327017051 C 0.0 **** -0.24
30137 H 51.23096296708329 24.30867151656156 98.75623552309145 H 0.0 **** 0.06
30138 H 50.15792740341903 23.608632903550046 97.52099892589285 H 0.0 **** 0.06
30139 H 50.13127960759718 25.360604066395894 97.83445997655491 H 0.0 **** 0.06
30140 H 49.47552298331125 24.230216148499863 99.0430650830794 H 0.0 **** 0.06
30141 C 72.16477187838413 116.10471115217251 30.606192981878195 C 0.0 **** -0.24
30142 H 71.65073559888565 116.40932149080801 29.694932363147537 H 0.0 **** 0.06
30143 H 71.97430803405106 115.04782562651802 30.7945258032317 H 0.0 **** 0.06
30144 H 71.79692142668634 116.69606424904175 31.44495295352641 H 0.0 **** 0.06
30145 H 73.23673675883823 116.26600453223479 30.489516155765628 H 0.0 **** 0.06
30146 C 4.38815379437608 102.9269108933338 2.2415839661077115 C 0.0 **** -0.24
30147 H 3.9484846787265298 103.38333437262327 3.1281206857521937 H 0.0 **** 0.06
30148 H 3.629765630254667 102.3412449542526 1.7208944518600902 H 0.0 **** 0.06
30149 H 5.2107885536176894 102.27609114924252 2.5382747686351195 H 0.0 **** 0.06
30150 H 4.762471746812281 103.70782390954798 1.5792829285451404 H 0.0 **** 0.06
30151 C 91.10325814436322 67.54682600786442 95.10537383175614 C 0.0 **** -0.24
30152 H 90.51739556402703 66.74877243996049 95.56211914482401 H 0.0 **** 0.06
30153 H 91.00178320603254 67.49747015117099 94.02139065632747 H 0.0 **** 0.06
30154 H 92.15200435920497 67.42781422532788 95.37783903780598 H 0.0 **** 0.06
30155 H 90.74258012199317 68.51123957938948 95.46225266889206 H 0.0 **** 0.06
30156 C 102.61693165918871 87.9361424789135 13.214263405868252 C 0.0 **** -0.24
30157 H 101.77625275781031 88.53503769529257 13.565228130495171 H 0.0 **** 0.06
30158 H 102.34460604141532 87.43729684063882 12.284220133731537 H 0.0 **** 0.06
30159 H 102.86873623638775 87.18934902563197 13.967281136210403 H 0.0 **** 0.06
30160 H 103.47726315306181 88.58285112115047 13.042384520269707 H 0.0 **** 0.06
30161 C 109.43334644021839 84.34402651574528 42.52575243883666 C 0.0 **** -0.24
30162 H 108.94335684325623 83.4952700408693 42.0491946558474 H 0.0 **** 0.06
30163 H 109.77045067524594 85.0442867767365 41.76136705262323 H 0.0 **** 0.06
30164 H 110.29026970086655 83.99319344018437 43.100567513478126 H 0.0 **** 0.06
30165 H 108.72983302174987 84.84359946890788 43.19106468899545 H 0.0 **** 0.06
30166 C 83.74307691278578 25.50076936000721 46.60287928697469 C 0.0 **** -0.24
30167 H 83.72838513169837 24.79095696978834 47.429532292721454 H 0.0 **** 0.06
30168 H 84.7754828452344 25.70747919600342 46.32006880868639 H 0.0 **** 0.06
30169 H 83.25740415535844 26.426774160206435 46.91031184496929 H 0.0 **** 0.06
30170 H 83.21090242761032 25.076636926463777 45.75091934203272 H 0.0 **** 0.06
30171 C 50.66151959579187 118.33153813815642 112.75748621309708 C 0.0 **** -0.24
30172 H 50.177167955360716 118.58619630226674 111.8148699560906 H 0.0 **** 0.06
30173 H 51.73317605942944 118.51557777556023 112.6754886933727 H 0.0 **** 0.06
30174 H 50.48974577007698 117.27845434234058 112.98021918958659 H 0.0 **** 0.06
30175 H 50.24601262125441 118.94534419815682 113.55659870553467 H 0.0 **** 0.06
30176 C 113.59173463928164 16.91112921631859 50.6191178029567 C 0.0 **** -0.24
30177 H 114.03685925640184 16.36821973997247 51.4524124915135 H 0.0 **** 0.06
30178 H 114.36092231761438 17.13864418581539 49.88160853525577 H 0.0 **** 0.06
30179 H 113.15109666357179 17.838784137106973 50.984433053786645 H 0.0 **** 0.06
30180 H 112.81652854695831 16.29731005322518 50.15849067319691 H 0.0 **** 0.06
30181 C 65.72553110227653 30.770441879155754 19.950268587708592 C 0.0 **** -0.24
30182 H 66.53244448175397 30.94882833033529 19.239282092175074 H 0.0 **** 0.06
30183 H 64.80727970014343 31.22655103273243 19.579426917976207 H 0.0 **** 0.06
30184 H 65.98694248384638 31.20928195779325 20.913922186971263 H 0.0 **** 0.06
30185 H 65.5762543418306 29.69659302387501 20.068762745824415 H 0.0 **** 0.06
30186 C 9.26897205387263 75.3289182324718 77.96648713566576 C 0.0 **** -0.24
30187 H 8.90752699607853 75.74753806894188 77.0277733590848 H 0.0 **** 0.06
30188 H 9.817584883483107 74.40779268758232 77.76478064164883 H 0.0 **** 0.06
30189 H 8.421827450181382 75.11171368750769 78.61708832975734 H 0.0 **** 0.06
30190 H 9.929055413927898 76.04566934403573 78.45424882826347 H 0.0 **** 0.06
30191 C 13.66440333335592 12.950857806620114 50.18445408594039 C 0.0 **** -0.24
30192 H 13.980864135436107 12.78038036000273 51.21379695548967 H 0.0 **** 0.06
30193 H 14.531920558042685 12.90579758565897 49.526319502485876 H 0.0 **** 0.06
30194 H 13.199160843440438 13.934328040447252 50.106105359122125 H 0.0 **** 0.06
30195 H 12.94576816358287 12.184286279798993 49.893365900775905 H 0.0 **** 0.06
30196 C 60.67947259741928 20.749334333015327 69.049421894699 C 0.0 **** -0.24
30197 H 60.74409133635643 19.662625205994857 69.09866992625022 H 0.0 **** 0.06
30198 H 61.134838993817866 21.181464778199825 69.94094277132629 H 0.0 **** 0.06
30199 H 59.632534281527455 21.048816805032743 68.99439321107911 H 0.0 **** 0.06
30200 H 61.20642577797531 21.104430542833825 68.16368167014033 H 0.0 **** 0.06
30201 C 9.454058674957167 110.74003890975064 92.29754291668598 C 0.0 **** -0.24
30202 H 9.649063950141965 110.53671856298342 93.35051180829441 H 0.0 **** 0.06
30203 H 10.288127595923783 110.37461551451622 91.6980969158991 H 0.0 **** 0.06
30204 H 9.342950473349674 111.81454064536831 92.14976697558927 H 0.0 **** 0.06
30205 H 8.537625061550614 110.23465186881785 91.99338167509148 H 0.0 **** 0.06
30206 C 36.00246920550758 31.79484092286401 20.46372851488306 C 0.0 **** -0.24
30207 H 35.41654457367497 32.616797367538254 20.874388479986834 H 0.0 **** 0.06
30208 H 36.61560871616457 31.35584282638945 21.2521024305575 H 0.0 **** 0.06
30209 H 36.6468453069802 32.16935883708737 19.668226478525554 H 0.0 **** 0.06
30210 H 35.33106134148886 31.036223875538894 20.06101225950323 H 0.0 **** 0.06
30211 C 39.69982661583778 90.80891935061172 51.42404156151956 C 0.0 **** -0.24
30212 H 39.80870796970636 90.26528405420083 50.48653256068909 H 0.0 **** 0.06
30213 H 38.77283685440446 91.38455704090569 51.4047258582902 H 0.0 **** 0.06
30214 H 40.544715754861826 91.48544339551114 51.55230012669711 H 0.0 **** 0.06
30215 H 39.671198107759665 90.10189292488695 52.25318735903879 H 0.0 **** 0.06
30216 C 24.87606143502657 62.18888237823427 105.01820327243891 C 0.0 **** -0.24
30217 H 24.414985572128415 63.09201827606296 104.62011881976207 H 0.0 **** 0.06
30218 H 25.682086577741444 61.87076647386199 104.3564431306913 H 0.0 **** 0.06
30219 H 24.12808531950796 61.398887818211705 105.08547162950853 H 0.0 **** 0.06
30220 H 25.278633091112056 62.39422916326646 106.0099706101993 H 0.0 **** 0.06
30221 C 22.886342076743745 64.24841513236174 94.86206878228077 C 0.0 **** -0.24
30222 H 22.76193564258054 64.23159335915597 95.94520026955551 H 0.0 **** 0.06
30223 H 23.06798319443095 65.27207208808267 94.53405861858772 H 0.0 **** 0.06
30224 H 21.981557652367258 63.868825587786205 94.38711021442374 H 0.0 **** 0.06
30225 H 23.73301326885297 63.62103507177278 94.58477143495112 H 0.0 **** 0.06
30226 C 49.945618955735256 30.702057592597896 78.39327502050799 C 0.0 **** -0.24
30227 H 50.312675031945844 31.561496208129256 77.83169435472524 H 0.0 **** 0.06
30228 H 48.95382002588519 30.922103767586634 78.78609581814709 H 0.0 **** 0.06
30229 H 50.62552113262956 30.490544663393564 79.21818955231623 H 0.0 **** 0.06
30230 H 49.89281722678294 29.83521841768777 77.73508090582135 H 0.0 **** 0.06
30231 C 118.85984756532028 121.18608415118757 47.99752686354708 C 0.0 **** -0.24
30232 H 119.50884184880572 122.0460516621014 47.833575708478534 H 0.0 **** 0.06
30233 H 118.08304291527244 121.1657707536381 47.232900399524596 H 0.0 **** 0.06
30234 H 118.39853716766432 121.26097316122205 48.98286037274623 H 0.0 **** 0.06
30235 H 119.4496505309442 120.27036338634244 47.94115551097158 H 0.0 **** 0.06
30236 C 67.17860169326832 105.37351762701572 65.49221379848615 C 0.0 **** -0.24
30237 H 66.4334730472874 105.5466159610549 64.71592715131487 H 0.0 **** 0.06
30238 H 66.76713312319737 104.70154571960249 66.24681779748786 H 0.0 **** 0.06
30239 H 67.4457649736587 106.32199900702987 65.95760345508086 H 0.0 **** 0.06
30240 H 68.06736986242788 104.92283238055514 65.05060350180588 H 0.0 **** 0.06
30241 C 105.73560185413152 89.48184308974191 121.43978664449207 C 0.0 **** -0.24
30242 H 106.55135438765754 89.36664524518778 120.72507688212838 H 0.0 **** 0.06
30243 H 106.12542563641958 89.38675677661514 122.45345362211728 H 0.0 **** 0.06
30244 H 104.98754742268366 88.70791527416581 121.26367279097552 H 0.0 **** 0.06
30245 H 105.2796043154884 90.46327528183869 121.31495583776669 H 0.0 **** 0.06
30246 C 23.675093653345755 64.99427478452628 56.59201433015107 C 0.0 **** -0.24
30247 H 22.64738375923565 64.94258501462048 56.951966084671824 H 0.0 **** 0.06
30248 H 24.105028593652577 63.99244144880633 56.57653348608932 H 0.0 **** 0.06
30249 H 24.259872898799472 65.63174055618168 57.25417991434239 H 0.0 **** 0.06
30250 H 23.685952112608987 65.41001070864003 55.58422493316726 H 0.0 **** 0.06
30251 C 3.9761227714297718 117.93674453689829 35.691321863133396 C 0.0 **** -0.24
30252 H 3.6963508877983884 117.01514234606881 36.202073096924664 H 0.0 **** 0.06
30253 H 4.259633927624662 117.71055457937184 34.66418207147683 H 0.0 **** 0.06
30254 H 4.817547392527928 118.3983009833864 36.20803741023053 H 0.0 **** 0.06
30255 H 3.1289522545528143 118.6233962377149 35.691889679056544 H 0.0 **** 0.06
30256 C 66.15653680561812 2.3687183688103346 95.69550741452912 C 0.0 **** -0.24
30257 H 66.68293520136187 3.2238061858680567 95.2736968423001 H 0.0 **** 0.06
30258 H 66.65507602261877 1.4477474526138394 95.39172299003658 H 0.0 **** 0.06
30259 H 65.12750870986018 2.3611317303687542 95.33377212509765 H 0.0 **** 0.06
30260 H 66.15777049306426 2.441549042799295 96.78349405380769 H 0.0 **** 0.06
30261 C 108.60204947915912 25.758303108278966 88.39060359607481 C 0.0 **** -0.24
30262 H 109.63219599741655 25.959792977979987 88.09393916958362 H 0.0 **** 0.06
30263 H 108.16699598282605 26.65941473781919 88.82440085973728 H 0.0 **** 0.06
30264 H 108.58834727893878 24.95585449131238 89.1292281680832 H 0.0 **** 0.06
30265 H 108.02459645328298 25.458212271382052 87.51739394946452 H 0.0 **** 0.06
30266 C 83.79124717830044 22.169981185528343 100.09502633695291 C 0.0 **** -0.24
30267 H 84.42132658789306 21.297232522628576 99.9273052966874 H 0.0 **** 0.06
30268 H 84.41966561304353 23.041245673282504 100.2826702293072 H 0.0 **** 0.06
30269 H 83.14821681922356 21.993316820129678 100.957837684872 H 0.0 **** 0.06
30270 H 83.17492741577894 22.348534519480836 99.21405565055642 H 0.0 **** 0.06
30271 C 114.71812850083893 60.34137552261012 115.38331682840294 C 0.0 **** -0.24
30272 H 114.44381943629679 61.05379261196356 114.60501537121627 H 0.0 **** 0.06
30273 H 115.59381310529511 60.70671030021151 115.91864253728812 H 0.0 **** 0.06
30274 H 114.94507278411237 59.37718202253677 114.9294315515341 H 0.0 **** 0.06
30275 H 113.8868156962642 60.227646205042504 116.08006243740135 H 0.0 **** 0.06
30276 C 32.41964486144664 77.75552153850961 27.443978205164598 C 0.0 **** -0.24
30277 H 31.745468755834935 77.58634760374656 28.28375881910381 H 0.0 **** 0.06
30278 H 32.355903574809304 76.91516099175132 26.752268771525564 H 0.0 **** 0.06
30279 H 33.442030717175896 77.84759449412712 27.811886473305577 H 0.0 **** 0.06
30280 H 32.135470220025866 78.67354269466955 26.9287736994296 H 0.0 **** 0.06
30281 C 74.66481101676942 113.03505701530919 31.58482995802447 C 0.0 **** -0.24
30282 H 75.36153270075155 113.83399480299089 31.838684280201875 H 0.0 **** 0.06
30283 H 74.90071717447921 112.14644301183438 32.17192300389581 H 0.0 **** 0.06
30284 H 74.74998875177837 112.80173156512049 30.523178069568417 H 0.0 **** 0.06
30285 H 73.64688125656693 113.35708492284937 31.805725335914246 H 0.0 **** 0.06
30286 C 42.01204057285959 65.37993979652569 44.74126288021263 C 0.0 **** -0.24
30287 H 42.71934443572309 64.55045066738981 44.74386093824816 H 0.0 **** 0.06
30288 H 42.520244023261455 66.28966854193905 44.420487872099315 H 0.0 **** 0.06
30289 H 41.61335537845959 65.5206506968128 45.74566729937584 H 0.0 **** 0.06
30290 H 41.195299186162345 65.15820929000023 44.05385846370916 H 0.0 **** 0.06
30291 C 38.91660363949107 110.41409787732141 7.748710146334616 C 0.0 **** -0.24
30292 H 39.53004972049882 111.30204328906206 7.592343212105533 H 0.0 **** 0.06
30293 H 39.531270840966414 109.6167076484532 8.166589040717355 H 0.0 **** 0.06
30294 H 38.49853379680923 110.08965476773238 6.7951845597660565 H 0.0 **** 0.06
30295 H 38.106911641085674 110.65001002300647 8.438120003102881 H 0.0 **** 0.06
30296 C 71.01556322600172 85.77917845594217 97.3027785994534 C 0.0 **** -0.24
30297 H 70.14996174207869 86.39514573808127 97.05749687320065 H 0.0 **** 0.06
30298 H 71.07393333238403 85.64877325711076 98.38342429879668 H 0.0 **** 0.06
30299 H 71.92149135026693 86.26791605508232 96.94475697859389 H 0.0 **** 0.06
30300 H 70.91456178058377 84.80507055514582 96.82462884058776 H 0.0 **** 0.06
30301 C 20.399668587298684 71.95419320068255 121.7381516546489 C 0.0 **** -0.24
30302 H 20.28652173161877 72.65097112451824 120.90704030732039 H 0.0 **** 0.06
30303 H 21.184535405521686 71.23480456652955 121.50357159901034 H 0.0 **** 0.06
30304 H 19.4598849225874 71.4272893249225 121.9006928189915 H 0.0 **** 0.06
30305 H 20.66907134964351 72.50541555457004 122.63900167954651 H 0.0 **** 0.06
30306 C 120.7649645096495 115.48644444272205 1.9985818798949264 C 0.0 **** -0.24
30307 H 121.6541638338594 115.89029017863572 2.4826716348628324 H 0.0 **** 0.06
30308 H 120.12421102678496 116.30712710494376 1.675274477328692 H 0.0 **** 0.06
30309 H 120.22236735584184 114.85715497814755 2.7035930648761006 H 0.0 **** 0.06
30310 H 121.05972048439897 114.89308887960232 1.1338312075173516 H 0.0 **** 0.06
30311 C 48.98534224335171 53.890614244101926 116.61623074826954 C 0.0 **** -0.24
30312 H 48.90772108909333 52.829964932664325 116.37823142656342 H 0.0 **** 0.06
30313 H 49.56126692963798 54.0162148308724 117.53296077522666 H 0.0 **** 0.06
30314 H 47.98743344533588 54.30642746437752 116.75300453112851 H 0.0 **** 0.06
30315 H 49.48565957547004 54.409425445753186 115.7986494363519 H 0.0 **** 0.06
30316 C 57.97835562478991 49.31844742611722 48.332439487855254 C 0.0 **** -0.24
30317 H 57.28648505598815 50.12676708976876 48.09471870652018 H 0.0 **** 0.06
30318 H 57.82515210009946 49.001389548648675 49.364646715894025 H 0.0 **** 0.06
30319 H 59.00319781690686 49.67020071485997 48.20912739169691 H 0.0 **** 0.06
30320 H 57.79847052160666 48.477429734463584 47.66350059086869 H 0.0 **** 0.06
30321 C 80.58363866582432 29.404356937423714 46.61489297251501 C 0.0 **** -0.24
30322 H 80.35007176381849 28.50496894499237 46.045485011869346 H 0.0 **** 0.06
30323 H 80.26118583252772 30.282128183606048 46.054601502050446 H 0.0 **** 0.06
30324 H 81.65845019768723 29.456846304647357 46.78640887938394 H 0.0 **** 0.06
30325 H 80.06279251498273 29.37308567588616 47.57228847244983 H 0.0 **** 0.06
30326 C 57.846565534361474 93.61129415751687 50.88523657155125 C 0.0 **** -0.24
30327 H 58.914188286922126 93.59102768060792 51.10545389276431 H 0.0 **** 0.06
30328 H 57.45018313444221 92.59601279254211 50.91897825267613 H 0.0 **** 0.06
30329 H 57.68925828346836 94.03122302042269 49.89162301515496 H 0.0 **** 0.06
30330 H 57.33472014870246 94.22616683259798 51.625182227211816 H 0.0 **** 0.06
30331 C 55.211157345279304 9.011211263891 60.08149238356961 C 0.0 **** -0.24
30332 H 56.10581243364035 8.391935694521862 60.0091680806394 H 0.0 **** 0.06
30333 H 54.4138516854367 8.442769767505013 60.56039911860003 H 0.0 **** 0.06
30334 H 54.89562741224958 9.311289699253223 59.081752640543556 H 0.0 **** 0.06
30335 H 55.43214411890102 9.899836189423041 60.67425910751129 H 0.0 **** 0.06
30336 C 12.973421757933465 21.04118132850718 124.17099144633106 C 0.0 **** -0.24
30337 H 13.90924442781295 20.651460141644492 124.57142624544159 H 0.0 **** 0.06
30338 H 12.587414241346494 20.35614998631314 123.41632201673441 H 0.0 **** 0.06
30339 H 13.150790034083911 22.01728072839245 123.71937527329976 H 0.0 **** 0.06
30340 H 12.24681993577559 21.14092550991566 124.97752886854126 H 0.0 **** 0.06
30341 C 20.369847472019522 117.54044725323803 61.4467625260052 C 0.0 **** -0.24
30342 H 19.937633597538003 118.43602730730885 61.892942122443685 H 0.0 **** 0.06
30343 H 19.57071836525514 116.87147716573307 61.12638550499324 H 0.0 **** 0.06
30344 H 20.995243710847937 117.03390881621041 62.180741390468825 H 0.0 **** 0.06
30345 H 20.975442585970036 117.82097564763417 60.58423939362952 H 0.0 **** 0.06
30346 C 65.88204881353595 114.85448578136717 97.87292520363152 C 0.0 **** -0.24
30347 H 65.78934647145003 113.80139625291059 97.60693001404292 H 0.0 **** 0.06
30348 H 65.04578529535381 115.4111256673767 97.44935809103843 H 0.0 **** 0.06
30349 H 66.81907722092531 115.2472085337688 97.47681743170097 H 0.0 **** 0.06
30350 H 65.87460012746855 114.9578991011876 98.95787077657445 H 0.0 **** 0.06
30351 C 89.27746183836507 54.790320908013086 57.532864458813094 C 0.0 **** -0.24
30352 H 89.79369823102962 54.75267289360451 58.49248748794125 H 0.0 **** 0.06
30353 H 89.54282305454797 55.7107785628847 57.013254207243136 H 0.0 **** 0.06
30354 H 88.20119108786213 54.76162494193113 57.69850093000974 H 0.0 **** 0.06
30355 H 89.57515794059543 53.933112577880394 56.927749844506934 H 0.0 **** 0.06
30356 C 72.47500802751684 92.84061662772885 31.371417696874744 C 0.0 **** -0.24
30357 H 72.03317674436404 92.86264741061467 30.374518231378033 H 0.0 **** 0.06
30358 H 72.76211814790328 93.8514512634878 31.663277071583195 H 0.0 **** 0.06
30359 H 73.35730175225126 92.19989028542076 31.3629740539061 H 0.0 **** 0.06
30360 H 71.74733198478059 92.4491278253382 32.08254203298236 H 0.0 **** 0.06
30361 C 59.7192444430396 65.07732524144467 33.59835746528552 C 0.0 **** -0.24
30362 H 59.62125757558118 64.0722936642148 33.18735523049272 H 0.0 **** 0.06
30363 H 59.521811239259705 65.05214401402094 34.66976528312638 H 0.0 **** 0.06
30364 H 59.00300079168227 65.7387754451729 33.11114667326822 H 0.0 **** 0.06
30365 H 60.7301386204428 65.44419589202002 33.42274837097851 H 0.0 **** 0.06
30366 C 70.85088365858928 23.03259934642572 111.82951179192096 C 0.0 **** -0.24
30367 H 70.12055888100588 22.25770771617408 111.59386066151934 H 0.0 **** 0.06
30368 H 71.69150103739571 22.962465205532112 111.13893134704416 H 0.0 **** 0.06
30369 H 71.20667403708012 22.89693533166976 112.85029439807019 H 0.0 **** 0.06
30370 H 70.38265566954482 24.012766719418607 111.73460539104116 H 0.0 **** 0.06
30371 C 82.64263907907471 85.74290063595664 1.682547604490722 C 0.0 **** -0.24
30372 H 83.63394492689909 85.40867405890992 1.989778877263575 H 0.0 **** 0.06
30373 H 82.47080537649447 85.46158447410905 0.6441025912633336 H 0.0 **** 0.06
30374 H 82.57887602961372 86.82686304869583 1.7809117302844726 H 0.0 **** 0.06
30375 H 81.88957449863017 85.27492384767132 2.3162976745889523 H 0.0 **** 0.06
30376 C 105.32376831262243 108.93778045971504 84.1797642706731 C 0.0 **** -0.24
30377 H 105.15161840237444 109.15390587731144 83.12522411717939 H 0.0 **** 0.06
30378 H 105.90385312427364 108.01890581760279 84.27163795044063 H 0.0 **** 0.06
30379 H 104.36674631353455 108.81592438038547 84.68644036231939 H 0.0 **** 0.06
30380 H 105.87395757162963 109.76188786821217 84.63387379955283 H 0.0 **** 0.06
30381 C 112.6110730920413 12.226943529851198 83.368076939905 C 0.0 **** -0.24
30382 H 113.43152040682003 12.927879233927754 83.21236861969993 H 0.0 **** 0.06
30383 H 112.72980789963697 11.373692440017308 82.69885617547934 H 0.0 **** 0.06
30384 H 111.66365347644285 12.724379496119326 83.15831924865904 H 0.0 **** 0.06
30385 H 112.6193744363365 11.882730375865833 84.40168084580299 H 0.0 **** 0.06
30386 C 98.94465217185143 119.47550507760127 64.69268013735902 C 0.0 **** -0.24
30387 H 99.15210233230323 118.44517413368061 64.98268585652154 H 0.0 **** 0.06
30388 H 97.87284683228009 119.66272398220175 64.76246648470428 H 0.0 **** 0.06
30389 H 99.27550121249074 119.63782552977727 63.66725161823642 H 0.0 **** 0.06
30390 H 99.4768595108065 120.15451411117729 65.35868522351592 H 0.0 **** 0.06
30391 C 65.49652311030616 87.69037852291473 81.26912933723185 C 0.0 **** -0.24
30392 H 64.45134855933304 87.99846291396284 81.31233732778946 H 0.0 **** 0.06
30393 H 65.80584870204473 87.31801967747606 82.2453830123439 H 0.0 **** 0.06
30394 H 66.1153123439716 88.54481697331528 80.99236119544469 H 0.0 **** 0.06
30395 H 65.61267035576486 86.90228392552638 80.52446465835624 H 0.0 **** 0.06
30396 C 100.68846546452855 124.02382012276391 117.52855873083803 C 0.0 **** -0.24
30397 H 101.34420961184665 124.81549990069018 117.89065876850776 H 0.0 **** 0.06
30398 H 99.6882159916581 124.42612772631904 117.36685124024922 H 0.0 **** 0.06
30399 H 100.64309724963042 123.22440669692423 118.26816985095189 H 0.0 **** 0.06
30400 H 101.0785742028312 123.62929246966021 116.59027049330268 H 0.0 **** 0.06
30401 C 53.419521137883464 103.11815034481148 19.950728109207773 C 0.0 **** -0.24
30402 H 53.72558183492538 102.17200504670355 19.50632565860589 H 0.0 **** 0.06
30403 H 53.22444847200842 103.84430294200759 19.160868103809605 H 0.0 **** 0.06
30404 H 54.21504910406078 103.4895255075849 20.59813721339148 H 0.0 **** 0.06
30405 H 52.514834183817854 102.967395468891 20.538704405675247 H 0.0 **** 0.06
30406 C 31.430627244991484 102.54491291659568 72.96331316552659 C 0.0 **** -0.24
30407 H 31.656130865970482 103.60107118594922 72.81535864555721 H 0.0 **** 0.06
30408 H 30.51789860101681 102.44818842898644 73.5518805300811 H 0.0 **** 0.06
30409 H 32.25653791585208 102.06783816811986 73.49035768275235 H 0.0 **** 0.06
30410 H 31.29066674110463 102.0638335483711 71.99433767336663 H 0.0 **** 0.06
30411 C 35.60654172055612 30.68383102666718 7.74076917907135 C 0.0 **** -0.24
30412 H 35.39876737913451 30.099835603492863 8.636608340546076 H 0.0 **** 0.06
30413 H 35.37030194529095 31.73194001186397 7.928314124428624 H 0.0 **** 0.06
30414 H 34.99487517644306 30.314691649521308 6.917329512245999 H 0.0 **** 0.06
30415 H 36.660848774592864 30.58895324272106 7.481147258163389 H 0.0 **** 0.06
30416 C 101.919029202318 121.96653107086637 113.0245999637765 C 0.0 **** -0.24
30417 H 101.49430949461515 121.20561355591244 113.67830581346885 H 0.0 **** 0.06
30418 H 101.39110949932626 122.90871704220473 113.17374458971932 H 0.0 **** 0.06
30419 H 101.81435957267524 121.6517936071154 111.98555358046809 H 0.0 **** 0.06
30420 H 102.97452891643042 122.09994773207903 113.25948291044114 H 0.0 **** 0.06
30421 C 64.67839576435188 36.749084545139794 117.48140849941296 C 0.0 **** -0.24
30422 H 63.649781484254504 36.676311371486804 117.1263148406652 H 0.0 **** 0.06
30423 H 64.79322113476462 36.15426971016356 118.38725347707714 H 0.0 **** 0.06
30424 H 64.91509776041016 37.79066320822221 117.69670995326578 H 0.0 **** 0.06
30425 H 65.35483653495547 36.37426639548886 116.71237272695726 H 0.0 **** 0.06
30426 C 33.696286788323214 90.9419950306509 57.77596549099877 C 0.0 **** -0.24
30427 H 34.601491855573805 91.3057470076584 58.26211154897541 H 0.0 **** 0.06
30428 H 32.92379012036049 90.77598054492285 58.52699665505071 H 0.0 **** 0.06
30429 H 33.911226307043115 90.00525491915283 57.26205921878824 H 0.0 **** 0.06
30430 H 33.34955951436539 91.68084875087374 57.05375772064454 H 0.0 **** 0.06
30431 C 98.06163756459685 65.25882135717046 100.73749293177303 C 0.0 **** -0.24
30432 H 99.02292972487207 65.08257243046283 101.22059377897347 H 0.0 **** 0.06
30433 H 97.25856800821931 64.92291591471957 101.39286800282997 H 0.0 **** 0.06
30434 H 98.02066301372658 64.70601466943374 99.79895334243446 H 0.0 **** 0.06
30435 H 97.94631418400884 66.3242256132212 100.536107626577 H 0.0 **** 0.06
30436 C 65.64944669118503 103.77023148421299 84.53441366738424 C 0.0 **** -0.24
30437 H 64.905690627287 103.02317268404498 84.25631152638694 H 0.0 **** 0.06
30438 H 65.26737464508771 104.3719627192438 85.3596822505882 H 0.0 **** 0.06
30439 H 65.85591486020145 104.41342852385243 83.67980785514305 H 0.0 **** 0.06
30440 H 66.5677181648609 103.2707364810526 84.84453137372539 H 0.0 **** 0.06
30441 C 35.761321299056135 8.04573727644771 15.300053336958797 C 0.0 **** -0.24
30442 H 35.14952081454146 8.5986869918641 14.587684432986407 H 0.0 **** 0.06
30443 H 35.12271355701125 7.395949072757787 15.898792990178151 H 0.0 **** 0.06
30444 H 36.280783144474185 8.747145079890629 15.954003078518497 H 0.0 **** 0.06
30445 H 36.49137301777398 7.443112466413538 14.760923980346263 H 0.0 **** 0.06
30446 C 34.865652054423634 105.22797318723781 51.05047304631903 C 0.0 **** -0.24
30447 H 35.5625790769691 105.9520486672136 50.62780513829556 H 0.0 **** 0.06
30448 H 33.851461630113484 105.47332500747763 50.73477541731026 H 0.0 **** 0.06
30449 H 34.925674973177195 105.26073528975729 52.138982429563015 H 0.0 **** 0.06
30450 H 35.123790204433554 104.2289332848988 50.70213905975578 H 0.0 **** 0.06
30451 C 87.52688786515995 84.48326691532671 2.4209320489068435 C 0.0 **** -0.24
30452 H 87.18186380362474 84.62271887737695 3.4454691432315894 H 0.0 **** 0.06
30453 H 86.72393201858215 84.04988658913464 1.823477294308649 H 0.0 **** 0.06
30454 H 88.38751228684843 83.81499140550048 2.41526532790618 H 0.0 **** 0.06
30455 H 87.81275702381573 85.4480096507565 2.000104218286406 H 0.0 **** 0.06
30456 C 70.44925120160843 118.94192688784098 102.91518831260863 C 0.0 **** -0.24
30457 H 69.5533488573532 119.05645890135592 103.52493505090568 H 0.0 **** 0.06
30458 H 70.50079191855406 117.92165521882798 102.53452703926283 H 0.0 **** 0.06
30459 H 71.33103220987616 119.1488333714912 103.52197467607411 H 0.0 **** 0.06
30460 H 70.41120983915141 119.63949016903497 102.07934146398588 H 0.0 **** 0.06
30461 C 73.58326122171756 101.90580075976234 83.1299910012657 C 0.0 **** -0.24
30462 H 73.02889438674143 102.59943249422133 82.49814282834211 H 0.0 **** 0.06
30463 H 72.90398084620028 101.14845453967845 83.51978135344007 H 0.0 **** 0.06
30464 H 74.03463552995944 102.45166308858407 83.95903461168552 H 0.0 **** 0.06
30465 H 74.36585947831908 101.42516692941953 82.54222927957767 H 0.0 **** 0.06
30466 C 68.88549610453231 37.61879386208119 6.3385078586819645 C 0.0 **** -0.24
30467 H 69.08393200522968 38.18302286194552 5.427559722462519 H 0.0 **** 0.06
30468 H 69.44676180807954 38.055013861364785 7.165341382032551 H 0.0 **** 0.06
30469 H 69.19155536065432 36.58260142230239 6.19793184956896 H 0.0 **** 0.06
30470 H 67.81941429164235 37.65590903202161 6.563322800518904 H 0.0 **** 0.06
30471 C 115.30799632300271 105.48432778984949 67.09069768963701 C 0.0 **** -0.24
30472 H 116.35696765096631 105.78178971883935 67.11451638215584 H 0.0 **** 0.06
30473 H 114.75606321771572 106.04145575125514 67.8476012366254 H 0.0 **** 0.06
30474 H 115.22912162807205 104.41646071902346 67.29515409726827 H 0.0 **** 0.06
30475 H 114.89217806800441 105.69731142470962 66.10616235306122 H 0.0 **** 0.06
30476 C 29.1548093756727 89.82406231846936 57.282067288762335 C 0.0 **** -0.24
30477 H 29.228489815932363 89.37181420368083 56.29255397626224 H 0.0 **** 0.06
30478 H 28.378136280076603 89.31771179328723 57.85527297546952 H 0.0 **** 0.06
30479 H 28.9037268911068 90.87922149057091 57.18035523466756 H 0.0 **** 0.06
30480 H 30.110564769413628 89.72505834409287 57.7968920733652 H 0.0 **** 0.06
30481 C 79.84525173310635 41.194863121521664 6.324438542427387 C 0.0 **** -0.24
30482 H 79.52900953778394 42.158167174641655 6.724769516718936 H 0.0 **** 0.06
30483 H 79.75206425360643 41.205551185937374 5.238482481709667 H 0.0 **** 0.06
30484 H 79.21587702126442 40.406190163111376 6.736277253322072 H 0.0 **** 0.06
30485 H 80.88442442364533 41.01156849743632 6.599100062658593 H 0.0 **** 0.06
30486 C 103.27277897823541 72.96217509082891 57.32263793715151 C 0.0 **** -0.24
30487 H 103.96054804600487 72.79829845487092 58.15161550629976 H 0.0 **** 0.06
30488 H 102.4202699067618 73.54687385121082 57.668266856364966 H 0.0 **** 0.06
30489 H 102.92506194664651 72.00105426997345 56.94314700002623 H 0.0 **** 0.06
30490 H 103.78577940756207 73.50287953619119 56.52678744077865 H 0.0 **** 0.06
30491 C 26.95575285432585 53.281824882968394 89.78855630680285 C 0.0 **** -0.24
30492 H 27.5959872687892 52.47783874304375 89.42475427610093 H 0.0 **** 0.06
30493 H 26.547951363256118 53.00828188541712 90.76254602419853 H 0.0 **** 0.06
30494 H 26.139023131115835 53.44247185091733 89.08452730177133 H 0.0 **** 0.06
30495 H 27.54040567627129 54.197095656147724 89.8829237533803 H 0.0 **** 0.06
30496 C 11.764409687943946 29.785962774331153 63.08492120992619 C 0.0 **** -0.24
30497 H 11.212357287583014 30.1180353386776 62.205417548249414 H 0.0 **** 0.06
30498 H 11.217721520549865 28.979080585632914 63.57268639346867 H 0.0 **** 0.06
30499 H 11.878233629806424 30.619694671025172 63.77737186685431 H 0.0 **** 0.06
30500 H 12.747621611585977 29.427780282332947 62.78165027137115 H 0.0 **** 0.06
30501 C 40.32954610939214 71.1477001501905 87.57501097132085 C 0.0 **** -0.24
30502 H 41.166172674559704 71.1404735041581 88.27353617778125 H 0.0 **** 0.06
30503 H 39.68081085881059 70.29502753344653 87.77690629269425 H 0.0 **** 0.06
30504 H 40.70814035075534 71.08360136779889 86.55470931366324 H 0.0 **** 0.06
30505 H 39.763382285435284 72.07133142309961 87.6962195324543 H 0.0 **** 0.06
30506 C 87.89290756621223 48.333832503634255 32.222882411185246 C 0.0 **** -0.24
30507 H 86.88863900058955 48.75591214076724 32.2722807014691 H 0.0 **** 0.06
30508 H 87.9892482034393 47.729403133849104 31.321372408709443 H 0.0 **** 0.06
30509 H 88.06703248621953 47.70974640061209 33.09987716561559 H 0.0 **** 0.06
30510 H 88.62453382114965 49.141708010390715 32.200680757080235 H 0.0 **** 0.06
30511 C 114.42880321927792 52.92515815365877 97.94240498618325 C 0.0 **** -0.24
30512 H 113.41065686479112 52.53844845142601 97.97436222414728 H 0.0 **** 0.06
30513 H 115.06646256858586 52.321397421721656 98.58774304705571 H 0.0 **** 0.06
30514 H 114.43600622780029 53.95886031712763 98.2882151435756 H 0.0 **** 0.06
30515 H 114.80114522341589 52.88159128739781 96.91927985927146 H 0.0 **** 0.06
30516 C 96.63284672346049 78.85803957546361 53.02979499869686 C 0.0 **** -0.24
30517 H 96.00027525144426 79.74572035216889 53.04247917382973 H 0.0 **** 0.06
30518 H 97.21485277841163 78.81307592086549 53.949881889421206 H 0.0 **** 0.06
30519 H 97.30644550291015 78.90468681060636 52.17418619781027 H 0.0 **** 0.06
30520 H 96.00774266672084 77.96854309315361 52.95133077765982 H 0.0 **** 0.06
30521 C 77.56392755916724 96.42892469460102 70.05333372167483 C 0.0 **** -0.24
30522 H 77.25498550298386 95.3871671957477 69.9696151116167 H 0.0 **** 0.06
30523 H 76.71678351890783 97.0338118533411 70.37943693061504 H 0.0 **** 0.06
30524 H 77.91257759872424 96.78395601045263 69.08478042272678 H 0.0 **** 0.06
30525 H 78.3702241143017 96.51037776484378 70.78225070445319 H 0.0 **** 0.06
30526 C 98.7489629294527 29.45313778585713 73.30215933304706 C 0.0 **** -0.24
30527 H 98.98328564520358 29.14357552974832 74.32016754840583 H 0.0 **** 0.06
30528 H 98.33489678150019 30.462037115578042 73.31449418538858 H 0.0 **** 0.06
30529 H 98.0190606874272 28.766070120581198 72.87289193337034 H 0.0 **** 0.06
30530 H 99.65707937974503 29.43997056206247 72.70015866985841 H 0.0 **** 0.06
30531 C 32.90229176813301 120.86847837575996 90.02201039080751 C 0.0 **** -0.24
30532 H 33.0098501667527 119.99449688567866 90.66472049160012 H 0.0 **** 0.06
30533 H 33.88715825810624 121.28049088527908 89.80199585246876 H 0.0 **** 0.06
30534 H 32.297867171485905 121.6206527643225 90.52888147744228 H 0.0 **** 0.06
30535 H 32.41446146500925 120.5769195714092 89.09207020542051 H 0.0 **** 0.06
30536 C 112.69937579444613 64.92285460085205 119.85990005439561 C 0.0 **** -0.24
30537 H 112.1491265043646 64.6587417307176 118.95620161102383 H 0.0 **** 0.06
30538 H 113.61717003234597 65.44492512224389 119.58764674560763 H 0.0 **** 0.06
30539 H 112.94649903246824 64.01616670418396 120.41141780445034 H 0.0 **** 0.06
30540 H 112.08312180731008 65.57050548269746 120.48318493654926 H 0.0 **** 0.06
30541 C 82.10928053585036 109.90566664421462 51.70470665587812 C 0.0 **** -0.24
30542 H 82.14186169316281 110.2116220076544 50.6594203565952 H 0.0 **** 0.06
30543 H 83.06383497840642 109.45837017435485 51.98191486425384 H 0.0 **** 0.06
30544 H 81.31134549321928 109.1761040013443 51.844880662705066 H 0.0 **** 0.06
30545 H 81.91965981141232 110.77609358827868 52.331347322550215 H 0.0 **** 0.06
30546 C 0.6222736788259482 93.2176843196206 46.83445446234953 C 0.0 **** -0.24
30547 H 0.042168692119616935 93.68858757997907 46.039919309644006 H 0.0 **** 0.06
30548 H -0.034984958296547575 92.97978628518827 47.67048573309012 H 0.0 **** 0.06
30549 H 1.4035184585588354 93.90026486997763 47.16736441882415 H 0.0 **** 0.06
30550 H 1.0773841420100183 92.30133651116701 46.45667152953439 H 0.0 **** 0.06
30551 C 72.39762313771018 33.81279357243196 38.490738685867825 C 0.0 **** -0.24
30552 H 71.31651535109778 33.74348596533346 38.36845156274467 H 0.0 **** 0.06
30553 H 72.8452835378484 34.17139118477539 37.563695190834494 H 0.0 **** 0.06
30554 H 72.79918350531729 32.828956055896754 38.731864540559 H 0.0 **** 0.06
30555 H 72.62848537685333 34.50740927693238 39.29797119244745 H 0.0 **** 0.06
30556 C 64.83827929626906 99.31191841738178 29.416957552219287 C 0.0 **** -0.24
30557 H 64.86173066090524 100.37439559308825 29.659941111812884 H 0.0 **** 0.06
30558 H 64.40531360560247 99.17576727804547 28.426404557073965 H 0.0 **** 0.06
30559 H 64.23440943172137 98.78398722719677 30.154596704447727 H 0.0 **** 0.06
30560 H 65.85407715789462 98.91476250926792 29.42816834604355 H 0.0 **** 0.06
30561 C 41.045143254404024 97.67825915658267 39.109983126486895 C 0.0 **** -0.24
30562 H 41.73340725084006 97.77880352951868 39.94838108308505 H 0.0 **** 0.06
30563 H 41.04825267533437 96.64597735738306 38.75955147478646 H 0.0 **** 0.06
30564 H 41.35974144368993 98.33733817823844 38.30031926226525 H 0.0 **** 0.06
30565 H 40.040130560710736 97.95096394483713 39.43064220531426 H 0.0 **** 0.06
30566 C 0.9691844443047994 15.413863067768443 89.11592031215707 C 0.0 **** -0.24
30567 H 0.6724669270508752 15.17105431617734 90.13573464528679 H 0.0 **** 0.06
30568 H 0.34138888127635525 14.864302758581356 88.41414332962256 H 0.0 **** 0.06
30569 H 2.0121617173475865 15.13664855062581 88.9649362360093 H 0.0 **** 0.06
30570 H 0.8502930810936018 16.484664868995026 88.94828948716633 H 0.0 **** 0.06
30571 C 80.90847626768974 35.74697076720105 6.109589959318697 C 0.0 **** -0.24
30572 H 81.16568062067901 36.32231079593163 6.99851708765263 H 0.0 **** 0.06
30573 H 81.7947285507372 35.6236184885106 5.486842953661181 H 0.0 **** 0.06
30574 H 80.13950879424786 36.27516207462003 5.545616831787896 H 0.0 **** 0.06
30575 H 80.53319075885429 34.76791038887279 6.407044590245675 H 0.0 **** 0.06
30576 C 24.999918284272525 117.32120512988232 11.876326004316809 C 0.0 **** -0.24
30577 H 24.564088341354562 117.87424962825226 11.043580056596625 H 0.0 **** 0.06
30578 H 25.34606991035318 118.0219999335354 12.63635457449368 H 0.0 **** 0.06
30579 H 25.841060401269544 116.72775696759396 11.517879454372746 H 0.0 **** 0.06
30580 H 24.246500753717925 116.66186265794765 12.307200965528466 H 0.0 **** 0.06
30581 C 10.41514831300043 41.470500584737295 97.2533560260748 C 0.0 **** -0.24
30582 H 10.730819382548333 41.144832406264015 98.24527981440764 H 0.0 **** 0.06
30583 H 9.940192599013585 40.63884520631274 96.73283406463965 H 0.0 **** 0.06
30584 H 11.285294622890149 41.8043571640178 96.68790761638556 H 0.0 **** 0.06
30585 H 9.706750063161138 42.2931365654764 97.34920304324447 H 0.0 **** 0.06
30586 C 112.31299315455078 47.22143852804112 1.6354338585402957 C 0.0 **** -0.24
30587 H 112.54474255207714 47.96732909905404 0.8746900009592764 H 0.0 **** 0.06
30588 H 111.25140028259551 47.26837053218503 1.8788217902043982 H 0.0 **** 0.06
30589 H 112.90047353635856 47.42155646121333 2.5305965447456487 H 0.0 **** 0.06
30590 H 112.55523356693129 46.22812827347491 1.2562675599013886 H 0.0 **** 0.06
30591 C 39.45079574528944 7.629844282499519 71.51437745389512 C 0.0 **** -0.24
30592 H 40.15476326446765 7.456407979562428 70.70124633301515 H 0.0 **** 0.06
30593 H 39.60691504171298 6.8839050622335805 72.29438207643284 H 0.0 **** 0.06
30594 H 38.431189565636515 7.551191341728426 71.13529206150412 H 0.0 **** 0.06
30595 H 39.60920108384127 8.625434048841669 71.9274905272049 H 0.0 **** 0.06
30596 C 36.0208079028975 59.31074825133864 116.52187505532521 C 0.0 **** -0.24
30597 H 35.21557948701593 59.15816691325033 117.2403392700505 H 0.0 **** 0.06
30598 H 36.080145659191146 58.45058903147351 115.85488565271567 H 0.0 **** 0.06
30599 H 36.964879256614154 59.42447496543511 117.05425574197943 H 0.0 **** 0.06
30600 H 35.82148554142185 60.20973291553338 115.93885373367286 H 0.0 **** 0.06
30601 C 13.551586511228265 113.55417443593669 102.00983864615904 C 0.0 **** -0.24
30602 H 13.668160731232206 114.56716507181818 102.39487127317545 H 0.0 **** 0.06
30603 H 13.196178255812072 113.59477044603287 100.9803253485037 H 0.0 **** 0.06
30604 H 12.829753015620042 113.01366320491809 102.62302767044497 H 0.0 **** 0.06
30605 H 14.512046107980211 113.03992478803491 102.04238651749452 H 0.0 **** 0.06
30606 C 109.83453385520038 98.22268938563474 86.4252861176515 C 0.0 **** -0.24
30607 H 108.81764760486955 97.95511441145896 86.13800106989018 H 0.0 **** 0.06
30608 H 109.8491280096444 99.24708981768242 86.79637294078165 H 0.0 **** 0.06
30609 H 110.49051490378038 98.13852074889064 85.55935011230875 H 0.0 **** 0.06
30610 H 110.17964993787807 97.5474522981898 87.20912764816401 H 0.0 **** 0.06
30611 C 79.64106509697767 75.56481887661862 39.60686412413747 C 0.0 **** -0.24
30612 H 78.94177044545107 75.09267113757676 38.9176927774364 H 0.0 **** 0.06
30613 H 79.5078087992937 75.1449919764336 40.603980390243464 H 0.0 **** 0.06
30614 H 79.45288543780474 76.63815610798956 39.63655122129893 H 0.0 **** 0.06
30615 H 80.66161710640945 75.38442786354432 39.269387639398076 H 0.0 **** 0.06
30616 C 91.76977307637878 52.195875471655654 104.30452766458143 C 0.0 **** -0.24
30617 H 91.77446891332268 53.23752238483884 104.62581316639267 H 0.0 **** 0.06
30618 H 92.45076728054634 51.61967780809809 104.92979223173981 H 0.0 **** 0.06
30619 H 92.08989116544856 52.13529247495164 103.26421817600095 H 0.0 **** 0.06
30620 H 90.76108422889152 51.79316618920455 104.39726253701366 H 0.0 **** 0.06
30621 C 22.333656914451126 88.68934198128072 122.93783379556676 C 0.0 **** -0.24
30622 H 22.744794096716134 89.00405413406487 121.97967927777837 H 0.0 **** 0.06
30623 H 21.6878170060765 87.82346434289853 122.79049249162566 H 0.0 **** 0.06
30624 H 21.754171512671178 89.5059199698294 123.36984053789371 H 0.0 **** 0.06
30625 H 23.147060967376035 88.42545999665144 123.61378117168248 H 0.0 **** 0.06
30626 C 106.81540368045216 98.66849164808535 99.73733096794783 C 0.0 **** -0.24
30627 H 106.59372965951144 97.79685197482067 100.35317398240926 H 0.0 **** 0.06
30628 H 107.76941197733322 99.09805143748845 100.04507815542912 H 0.0 **** 0.06
30629 H 106.02579352140339 99.41017592875617 99.86045678072372 H 0.0 **** 0.06
30630 H 106.87265586633117 98.36804460052274 98.6911529418658 H 0.0 **** 0.06
30631 C 10.660070532199825 34.76197145596433 58.73908523195405 C 0.0 **** -0.24
30632 H 11.351466209198442 33.9502416184402 58.50936478949076 H 0.0 **** 0.06
30633 H 9.954949896025987 34.431922096444225 59.502516343115545 H 0.0 **** 0.06
30634 H 10.115422999764302 35.04158231565549 57.83786301638892 H 0.0 **** 0.06
30635 H 11.219666122525975 35.621881810623506 59.10778251600726 H 0.0 **** 0.06
30636 C 118.06958052246169 30.342571507514066 120.18294428839482 C 0.0 **** -0.24
30637 H 118.60206469800922 29.566869869308043 119.63260232220458 H 0.0 **** 0.06
30638 H 117.37545066385248 29.8777290442761 120.88377592449271 H 0.0 **** 0.06
30639 H 117.5148885737128 30.967523149733395 119.48249155213551 H 0.0 **** 0.06
30640 H 118.78445541777747 30.956362054182478 120.72997234813309 H 0.0 **** 0.06
30641 C 38.37849931077608 22.506189706750945 54.91550213622941 C 0.0 **** -0.24
30642 H 37.97067650956291 22.168090191800246 55.86897110548907 H 0.0 **** 0.06
30643 H 39.46609913289649 22.444577121983656 54.944677334477035 H 0.0 **** 0.06
30644 H 38.07711633198949 23.537571205936416 54.737024908501496 H 0.0 **** 0.06
30645 H 37.99935569545835 21.872559658289134 54.11409103371466 H 0.0 **** 0.06
30646 C 49.56446663931504 93.17013377958743 69.33540838457097 C 0.0 **** -0.24
30647 H 49.48290648790561 94.06389325281441 69.95389091961113 H 0.0 **** 0.06
30648 H 50.602911666353236 92.8388164131999 69.31008108731403 H 0.0 **** 0.06
30649 H 49.23033461933642 93.39734648698985 68.3234969065481 H 0.0 **** 0.06
30650 H 48.94075225438263 92.38031781759945 69.75518912473298 H 0.0 **** 0.06
30651 C 122.71330103674521 47.72981715623405 5.892426207901735 C 0.0 **** -0.24
30652 H 121.9095621803867 46.9962724741178 5.831330038937637 H 0.0 **** 0.06
30653 H 123.21596642560567 47.800682388966436 4.927730222088087 H 0.0 **** 0.06
30654 H 123.42906210316741 47.42122772815691 6.65382184935001 H 0.0 **** 0.06
30655 H 122.29648491282657 48.702159919829455 6.158344752410045 H 0.0 **** 0.06
30656 C 86.38053043942335 121.69400585173877 108.0577096899467 C 0.0 **** -0.24
30657 H 85.94380135413125 121.50521590698277 107.07701464472494 H 0.0 **** 0.06
30658 H 87.45853982384662 121.53736995957775 108.01138790205037 H 0.0 **** 0.06
30659 H 85.94475121419707 121.01004406628812 108.78641915423171 H 0.0 **** 0.06
30660 H 86.17487939915883 122.7218907604497 108.35516881198349 H 0.0 **** 0.06
30661 C 45.881899688221324 97.57482726890015 97.49287791456426 C 0.0 **** -0.24
30662 H 45.24272771996101 98.36197756015983 97.09312760164978 H 0.0 **** 0.06
30663 H 45.2625492033074 96.80713486003839 97.95906475036206 H 0.0 **** 0.06
30664 H 46.558286879316086 97.99702473236465 98.23490708048297 H 0.0 **** 0.06
30665 H 46.46174525423555 97.13106691425665 96.68326034910991 H 0.0 **** 0.06
30666 C 75.83138456362454 45.80461610724481 43.05318973184478 C 0.0 **** -0.24
30667 H 76.39804596900117 46.092505639223276 43.93866371411161 H 0.0 **** 0.06
30668 H 75.02581305217865 45.12873924759688 43.34125005791462 H 0.0 **** 0.06
30669 H 76.49184912654096 45.303395236910234 42.346034250154105 H 0.0 **** 0.06
30670 H 75.4085246969581 46.695248836618646 42.587936464481714 H 0.0 **** 0.06
30671 C 118.19245595775374 21.426154977918884 38.520950082867756 C 0.0 **** -0.24
30672 H 117.60741002397125 22.327837632964417 38.34106309385507 H 0.0 **** 0.06
30673 H 117.6096839898645 20.73013807670634 39.1253862528817 H 0.0 **** 0.06
30674 H 119.10954104673972 21.68747996172266 39.05009086287032 H 0.0 **** 0.06
30675 H 118.44269549905697 20.95989152813752 37.56836820262214 H 0.0 **** 0.06
30676 C 79.58615045280965 41.05701601724172 81.524657888967 C 0.0 **** -0.24
30677 H 80.52204564130572 40.86938527013927 82.05208624373006 H 0.0 **** 0.06
30678 H 79.20259813183152 42.03811407260686 81.80520546851298 H 0.0 **** 0.06
30679 H 78.8588261184554 40.29225175167816 81.79418998833697 H 0.0 **** 0.06
30680 H 79.7628475234577 41.02938002675096 80.44936764377184 H 0.0 **** 0.06
30681 C 59.054713927377634 29.10002359490869 17.407835748622574 C 0.0 **** -0.24
30682 H 59.76366962648484 29.8236192724259 17.004924042326365 H 0.0 **** 0.06
30683 H 59.211039989902076 28.133013361769315 16.928385908881467 H 0.0 **** 0.06
30684 H 58.03743558829257 29.442129461125432 17.214181072881672 H 0.0 **** 0.06
30685 H 59.20721274591921 29.002217013860786 18.482869567852333 H 0.0 **** 0.06
30686 C 121.65139499731494 23.095689912515397 111.97543800580269 C 0.0 **** -0.24
30687 H 121.55700684836822 22.979478631062072 110.89578180088427 H 0.0 **** 0.06
30688 H 122.64871203235022 22.78391472843512 112.28885271348597 H 0.0 **** 0.06
30689 H 120.90435539069003 22.47754693312718 112.47363556156164 H 0.0 **** 0.06
30690 H 121.49595889160264 24.140230759072608 112.242961226953 H 0.0 **** 0.06
30691 C 99.14430358326734 35.92783707202355 31.431718183714878 C 0.0 **** -0.24
30692 H 98.43497553547145 35.78311811305667 32.24705117770637 H 0.0 **** 0.06
30693 H 99.67304217148173 36.87043754378192 31.574534786518257 H 0.0 **** 0.06
30694 H 98.60678078543641 35.95267586729767 30.483962431264302 H 0.0 **** 0.06
30695 H 99.85978164896828 35.10602814824071 31.423121838348663 H 0.0 **** 0.06
30696 C 71.58381941743107 81.88313177985651 35.21202562447422 C 0.0 **** -0.24
30697 H 71.7684679623544 82.90699259306376 34.885102515123165 H 0.0 **** 0.06
30698 H 70.52131619560487 81.65841973688953 35.12092080952464 H 0.0 **** 0.06
30699 H 71.89157288478111 81.77284703562114 36.25119727209148 H 0.0 **** 0.06
30700 H 72.1563305470853 81.19547284208 34.58894782842608 H 0.0 **** 0.06
30701 C 81.05909685073911 66.91002675034323 101.261953566459 C 0.0 **** -0.24
30702 H 81.15902989438398 67.96799152429278 101.50684475117026 H 0.0 **** 0.06
30703 H 80.87869984069327 66.34268031807805 102.17428934938414 H 0.0 **** 0.06
30704 H 81.97711489145979 66.55958592514266 100.78994209852652 H 0.0 **** 0.06
30705 H 80.22266786030941 66.77404327017453 100.57635693097757 H 0.0 **** 0.06
30706 C 111.5436618407014 115.95803922474451 63.068554113112185 C 0.0 **** -0.24
30707 H 111.42580722691858 115.13204649553103 63.76945066126689 H 0.0 **** 0.06
30708 H 111.19627426432743 116.8807240480572 63.5345609305206 H 0.0 **** 0.06
30709 H 110.95564282016778 115.76015274101727 62.17187004137165 H 0.0 **** 0.06
30710 H 112.59466656797706 116.05940870891206 62.799271807146425 H 0.0 **** 0.06
30711 C 77.9718728135295 40.936849067397475 15.447059172682884 C 0.0 **** -0.24
30712 H 78.00880783450049 42.01799890944767 15.312461459317106 H 0.0 **** 0.06
30713 H 77.71348424301453 40.46251297426744 14.498894383314934 H 0.0 **** 0.06
30714 H 77.21853863097692 40.68879541241964 16.194320616448053 H 0.0 **** 0.06
30715 H 78.94560488324339 40.57852879007373 15.77899752355114 H 0.0 **** 0.06
30716 C 119.77117316828499 43.87435925650374 118.98979922153882 C 0.0 **** -0.24
30717 H 119.36250314390625 44.649183000899086 118.34207194898016 H 0.0 **** 0.06
30718 H 120.0475659995981 43.00770275061868 118.38876490949457 H 0.0 **** 0.06
30719 H 119.0218018418855 43.58352813121408 119.7259021848842 H 0.0 **** 0.06
30720 H 120.65395228231706 44.25833265394826 119.50254209607064 H 0.0 **** 0.06
30721 C 16.745975686057193 19.20337633303609 28.592723120704733 C 0.0 **** -0.24
30722 H 17.17798414311727 20.17105429351605 28.334636221805027 H 0.0 **** 0.06
30723 H 16.17865495215716 18.821781628672454 27.743982077231635 H 0.0 **** 0.06
30724 H 16.083343209345458 19.31984930204544 29.450599558210854 H 0.0 **** 0.06
30725 H 17.544476592146623 18.504089805587142 28.841655617149627 H 0.0 **** 0.06
30726 C 27.216862101947328 57.64212674643579 63.46246322478591 C 0.0 **** -0.24
30727 H 28.27675854116754 57.81416468958585 63.64734194354611 H 0.0 **** 0.06
30728 H 26.980400988392518 57.903023413261025 62.42981812704369 H 0.0 **** 0.06
30729 H 26.624944175934246 58.25958116252011 64.13772679771296 H 0.0 **** 0.06
30730 H 26.983948752127645 56.591405295936056 63.63399599063936 H 0.0 **** 0.06
30731 C 121.1956932460569 102.26806690106419 33.531833413806574 C 0.0 **** -0.24
30732 H 121.22640016677403 101.75812887804044 34.49575151864049 H 0.0 **** 0.06
30733 H 122.17310883975202 102.7014070678668 33.31916282915399 H 0.0 **** 0.06
30734 H 120.44512546896716 103.05835575445776 33.56322273830819 H 0.0 **** 0.06
30735 H 120.93763283198493 101.5522179388729 32.75145223182948 H 0.0 **** 0.06
30736 C 12.542383741510207 26.429793660074353 72.31828343508732 C 0.0 **** -0.24
30737 H 13.163535970287654 26.844521860408634 73.11159490339037 H 0.0 **** 0.06
30738 H 11.71707191242669 27.111026115823762 72.10777806791504 H 0.0 **** 0.06
30739 H 12.146341256157058 25.464939808914664 72.6340857019066 H 0.0 **** 0.06
30740 H 13.144234684450282 26.298531949055274 71.41817255527764 H 0.0 **** 0.06
30741 C 111.75268442728347 8.67016228559828 69.07204051791015 C 0.0 **** -0.24
30742 H 112.08273657342701 7.679019315586743 69.38483590871778 H 0.0 **** 0.06
30743 H 110.8865141464892 8.967549583101118 69.6640680554122 H 0.0 **** 0.06
30744 H 111.4804781285149 8.645583248930905 68.01666601987938 H 0.0 **** 0.06
30745 H 112.56056201397246 9.386308077463866 69.22268819759546 H 0.0 **** 0.06
30746 C 3.706420091754179 62.617054972349536 58.588566281440734 C 0.0 **** -0.24
30747 H 3.227828376693198 62.3116682249366 59.52007136155632 H 0.0 **** 0.06
30748 H 4.2669734604753025 63.53709497466055 58.754153184845535 H 0.0 **** 0.06
30749 H 2.944330175896676 62.78719941756103 57.82807201199094 H 0.0 **** 0.06
30750 H 4.384807761458319 61.8320478161026 58.25527420144441 H 0.0 **** 0.06
30751 C 10.200288864733015 9.378198466643624 36.87979757976685 C 0.0 **** -0.24
30752 H 9.334135843934732 9.155171928746 36.256931779263546 H 0.0 **** 0.06
30753 H 11.073200013676217 8.85344771649909 36.48974558696876 H 0.0 **** 0.06
30754 H 10.006767653169824 9.051782493665627 37.90155481808996 H 0.0 **** 0.06
30755 H 10.38752561217624 10.45164948657498 36.87143223830098 H 0.0 **** 0.06
30756 C 15.80107957819314 76.0545265402044 20.34211122767053 C 0.0 **** -0.24
30757 H 15.630875709196346 77.13074730572858 20.386386183569158 H 0.0 **** 0.06
30758 H 16.550218187286703 75.77426770153158 21.081432498018614 H 0.0 **** 0.06
30759 H 16.15371161413907 75.7846678675138 19.34641715986794 H 0.0 **** 0.06
30760 H 14.868734612937203 75.53116621080537 20.551785943965285 H 0.0 **** 0.06
30761 C 122.04335184128027 76.19180795465937 22.59851981020617 C 0.0 **** -0.24
30762 H 122.80388512744094 75.67109973267202 23.178626409345924 H 0.0 **** 0.06
30763 H 121.9905230595092 75.76013981407658 21.59823758575 H 0.0 **** 0.06
30764 H 122.30318603534258 77.24802620907869 22.524574403107152 H 0.0 **** 0.06
30765 H 121.07618692759908 76.08924144255374 23.08995120062545 H 0.0 **** 0.06
30766 C 115.92697944253871 4.342243442264106 46.64457797711208 C 0.0 **** -0.24
30767 H 116.0630408785446 4.96844618590319 45.76301623792352 H 0.0 **** 0.06
30768 H 116.8735256464565 4.256087666643907 47.178349635235065 H 0.0 **** 0.06
30769 H 115.59051023542327 3.3515379627435777 46.337464183555255 H 0.0 **** 0.06
30770 H 115.17977770503647 4.793415643732544 47.298214702723044 H 0.0 **** 0.06
30771 C 109.81955607367652 56.872329484054646 33.648128861139554 C 0.0 **** -0.24
30772 H 110.20735750876091 56.2090964088618 32.8741154829153 H 0.0 **** 0.06
30773 H 109.18516035700466 57.63096456636548 33.190521436153745 H 0.0 **** 0.06
30774 H 110.65064539951075 57.35530062318597 34.1624771293003 H 0.0 **** 0.06
30775 H 109.23625211176429 56.293125276157994 34.36370112340788 H 0.0 **** 0.06
30776 C 32.55262032960957 69.43021155338403 38.2802666905765 C 0.0 **** -0.24
30777 H 33.13951938982899 69.57066288744306 39.187278573440494 H 0.0 **** 0.06
30778 H 32.90768459921807 70.11577499498395 37.50880119777122 H 0.0 **** 0.06
30779 H 31.50273480000115 69.63334141535506 38.491101540643854 H 0.0 **** 0.06
30780 H 32.66068158787655 68.40340994832314 37.93201693667456 H 0.0 **** 0.06
30781 C 87.32818448727312 83.81711029125287 33.82276346557953 C 0.0 **** -0.24
30782 H 86.8311203589414 83.24679871648914 34.608145362112225 H 0.0 **** 0.06
30783 H 87.68815291406372 84.76089669428663 34.23213817565534 H 0.0 **** 0.06
30784 H 86.62252077618842 84.01558873626067 33.01689085146293 H 0.0 **** 0.06
30785 H 88.17036048303925 83.24387174337767 33.43561382083104 H 0.0 **** 0.06
30786 C 109.12352013367726 37.86521546112709 115.08445346554961 C 0.0 **** -0.24
30787 H 108.73295238735186 38.836004551704946 115.38807664280384 H 0.0 **** 0.06
30788 H 110.18481783278895 37.957317741943996 114.85339919229239 H 0.0 **** 0.06
30789 H 108.58838043431652 37.5179224645706 114.20135453753844 H 0.0 **** 0.06
30790 H 108.98864316084233 37.149735077337226 115.89619897965403 H 0.0 **** 0.06
30791 C 55.32716700563559 68.54203281119612 100.11518337061707 C 0.0 **** -0.24
30792 H 55.733407924198815 69.27216923712265 100.81527681525634 H 0.0 **** 0.06
30793 H 55.242540322306866 67.57416039346299 100.6107952078512 H 0.0 **** 0.06
30794 H 55.99090748519065 68.45398325340827 99.25638861252415 H 0.0 **** 0.06
30795 H 54.341899043317724 68.86710489008459 99.78194492857483 H 0.0 **** 0.06
30796 C 82.70821699689006 68.01380772962796 118.01043182435939 C 0.0 **** -0.24
30797 H 81.64163965359731 68.04982192024471 118.23369957776752 H 0.0 **** 0.06
30798 H 82.866786905823 68.25849588491604 116.96012186953256 H 0.0 **** 0.06
30799 H 83.0881980045072 67.01253039347517 118.21269606645704 H 0.0 **** 0.06
30800 H 83.23389009522228 68.73581185175306 118.63585774699735 H 0.0 **** 0.06
30801 C 60.64636085499953 97.34095955607575 62.454030532043674 C 0.0 **** -0.24
30802 H 60.22258218218809 97.95408327956102 61.658566106462274 H 0.0 **** 0.06
30803 H 61.12617846694535 96.46346439686397 62.01997173399181 H 0.0 **** 0.06
30804 H 59.852247609417034 97.02455201603641 63.13103066508714 H 0.0 **** 0.06
30805 H 61.38378840370356 97.92297102071075 63.00630305756218 H 0.0 **** 0.06
30806 C 41.14334495440494 24.833398962778745 123.5269435865309 C 0.0 **** -0.24
30807 H 40.56915811895925 24.110491684603744 122.94850155251743 H 0.0 **** 0.06
30808 H 40.667896575772204 24.980445864161993 124.49746449542425 H 0.0 **** 0.06
30809 H 41.17604871386496 25.782294868674853 122.99191395093239 H 0.0 **** 0.06
30810 H 42.15708112423525 24.461163463528408 123.67136090937406 H 0.0 **** 0.06
30811 C 2.334573362057853 105.76757133623158 30.556948943883697 C 0.0 **** -0.24
30812 H 1.4206004022875334 105.65408103241617 31.140435120181138 H 0.0 **** 0.06
30813 H 3.193980648668685 105.76752346671884 31.22803676629715 H 0.0 **** 0.06
30814 H 2.3008646995535003 106.70856057753548 30.00932352951628 H 0.0 **** 0.06
30815 H 2.421638459665729 104.93978236939796 29.854174636308414 H 0.0 **** 0.06
30816 C 87.89801275762521 62.55535787723653 80.65427047857641 C 0.0 **** -0.24
30817 H 88.30846512096636 61.57617855861204 80.90464325171537 H 0.0 **** 0.06
30818 H 86.88926244522258 62.43576169734018 80.25932585570044 H 0.0 **** 0.06
30819 H 88.52907850373315 63.03111069013522 79.90294561923983 H 0.0 **** 0.06
30820 H 87.86804957459853 63.176403974870965 81.5490590643552 H 0.0 **** 0.06
30821 C 118.89687474696692 120.10490350467101 111.05257701668442 C 0.0 **** -0.24
30822 H 118.77831333357616 119.18245800776029 111.62133023363951 H 0.0 **** 0.06
30823 H 119.87382588993202 120.11007345204415 110.56781571931252 H 0.0 **** 0.06
30824 H 118.8209354758022 120.95899881932384 111.7255080135465 H 0.0 **** 0.06
30825 H 118.11530015748369 120.16812968804417 110.29613451254505 H 0.0 **** 0.06
30826 C 111.37624091657284 115.80097461064022 41.41009245070421 C 0.0 **** -0.24
30827 H 110.44260235682373 115.29967169812139 41.1551667168942 H 0.0 **** 0.06
30828 H 111.32627503740014 116.15934060264365 42.43908371494177 H 0.0 **** 0.06
30829 H 111.5303369614802 116.64554140380756 40.738125879084805 H 0.0 **** 0.06
30830 H 112.20448921616259 115.09919377060828 41.30861757373242 H 0.0 **** 0.06
30831 C 51.99412878888033 6.630328202136152 75.72458560164189 C 0.0 **** -0.24
30832 H 51.57461020282929 5.742081543616713 75.25110509153187 H 0.0 **** 0.06
30833 H 51.920164600982005 6.534641931991345 76.80775508602422 H 0.0 **** 0.06
30834 H 51.439918076745585 7.510626994558226 75.39863431489577 H 0.0 **** 0.06
30835 H 53.04087500599951 6.734365134386042 75.43862513238432 H 0.0 **** 0.06
30836 C 97.47677659290969 38.76897572392667 36.94190018559783 C 0.0 **** -0.24
30837 H 97.37386999807194 38.05790391964993 36.12156434834833 H 0.0 **** 0.06
30838 H 97.06207568370509 39.73185556614098 36.64071857131529 H 0.0 **** 0.06
30839 H 98.53137035699832 38.887822119628396 37.18901391266243 H 0.0 **** 0.06
30840 H 96.93821330249172 38.39753693899752 37.81300261956068 H 0.0 **** 0.06
30841 C 58.51755045078518 44.32193927980479 104.22578124220983 C 0.0 **** -0.24
30842 H 59.06349635546077 44.86831787538252 103.45637417712726 H 0.0 **** 0.06
30843 H 58.517871600146535 44.89978646740397 105.15024879469021 H 0.0 **** 0.06
30844 H 59.00002460250158 43.36002537859001 104.39854129572727 H 0.0 **** 0.06
30845 H 57.49116468824977 44.160233620108706 103.89766966254166 H 0.0 **** 0.06
30846 C 47.51292048175213 76.32759003417107 54.90241744607778 C 0.0 **** -0.24
30847 H 46.426026954981836 76.38723326270326 54.84154971665066 H 0.0 **** 0.06
30848 H 47.83382587655788 76.57903285526021 55.91405474442752 H 0.0 **** 0.06
30849 H 47.95459458267325 77.02947846062716 54.19595706988764 H 0.0 **** 0.06
30850 H 47.83527933317103 75.31550180479502 54.659288152138686 H 0.0 **** 0.06
30851 C 106.60179992929326 67.38303541641935 101.44507878796594 C 0.0 **** -0.24
30852 H 106.3183593006196 66.53326884783024 102.06609158637694 H 0.0 **** 0.06
30853 H 107.4582701927285 67.1122807732282 100.82796267608306 H 0.0 **** 0.06
30854 H 106.86538061613311 68.22675721521429 102.0823294598009 H 0.0 **** 0.06
30855 H 105.76381560074356 67.66001314925265 100.80421500355284 H 0.0 **** 0.06
30856 C 90.86928052620743 99.72465097158184 59.59984640591858 C 0.0 **** -0.24
30857 H 90.31808864510407 99.6590960663525 60.538184723236725 H 0.0 **** 0.06
30858 H 90.60332354062098 100.64760104141872 59.08527112713398 H 0.0 **** 0.06
30859 H 90.61680892301432 98.8709477587579 58.97024838636449 H 0.0 **** 0.06
30860 H 91.9398928263054 99.71842057737678 59.806438362427 H 0.0 **** 0.06
30861 C 65.57625018437179 76.32109741546748 59.10686111366324 C 0.0 **** -0.24
30862 H 66.20447431972889 75.43129381944743 59.157790005083 H 0.0 **** 0.06
30863 H 65.73832005857648 76.93163911441087 59.995821157655186 H 0.0 **** 0.06
30864 H 64.52943087163229 76.02355601010768 59.054975765052134 H 0.0 **** 0.06
30865 H 65.83491750827599 76.89727270613761 58.21784873046532 H 0.0 **** 0.06
30866 C 17.68923857113481 106.40949045939178 110.4472989261576 C 0.0 **** -0.24
30867 H 18.461301880405813 106.62246797749631 111.18728174980845 H 0.0 **** 0.06
30868 H 17.64465042207098 107.2244575800639 109.72430913535104 H 0.0 **** 0.06
30869 H 16.725019940706545 106.31293674444724 110.94706242776222 H 0.0 **** 0.06
30870 H 17.926416244013637 105.47852329126276 109.93269463873806 H 0.0 **** 0.06
30871 C 7.622476604193821 10.81320155102161 83.75587169890534 C 0.0 **** -0.24
30872 H 7.65074133518317 10.226893250919566 82.83711796725055 H 0.0 **** 0.06
30873 H 6.5894027792372185 10.91517175796509 84.08953965192342 H 0.0 **** 0.06
30874 H 8.04291896597374 11.801191550805974 83.56973825821376 H 0.0 **** 0.06
30875 H 8.205039021757841 10.309180579237037 84.526310883527 H 0.0 **** 0.06
30876 C 108.2981469592674 31.810513459788233 101.66593381117775 C 0.0 **** -0.24
30877 H 107.64892107332626 31.702319848066367 100.79693173262069 H 0.0 **** 0.06
30878 H 107.85996718713083 31.28384431740286 102.51311251412255 H 0.0 **** 0.06
30879 H 108.40452131805664 32.867764302162605 101.9090775240789 H 0.0 **** 0.06
30880 H 109.27796158735032 31.388488945995704 101.44154947084678 H 0.0 **** 0.06
30881 C 4.823839780801734 13.375013591466796 88.95524699513919 C 0.0 **** -0.24
30882 H 4.422796605931467 13.550144865988443 87.957123707614 H 0.0 **** 0.06
30883 H 5.913671966389359 13.38830162559863 88.91557311716132 H 0.0 **** 0.06
30884 H 4.485153217237155 12.404738669392444 89.31746744423148 H 0.0 **** 0.06
30885 H 4.474610534471822 14.1566070751864 89.62974254755198 H 0.0 **** 0.06
30886 C 113.4694997342427 60.27639280912422 118.85802156755094 C 0.0 **** -0.24
30887 H 114.52586994881318 60.38356855740082 119.10093707797617 H 0.0 **** 0.06
30888 H 113.04718961244683 61.25478199709133 118.62960868087575 H 0.0 **** 0.06
30889 H 112.94286753574957 59.8433900955919 119.7086659716029 H 0.0 **** 0.06
30890 H 113.36027674806272 59.62229254709766 117.99223235450856 H 0.0 **** 0.06
30891 C 70.36665933936852 48.43767283164192 91.64202971451009 C 0.0 **** -0.24
30892 H 71.07149366923574 49.267563968975075 91.59308112733773 H 0.0 **** 0.06
30893 H 70.86997146249132 47.55643805218644 92.03979330995995 H 0.0 **** 0.06
30894 H 69.9898064412052 48.22178161811717 90.64220843392839 H 0.0 **** 0.06
30895 H 69.5344084049114 48.70611566216202 92.29382616516166 H 0.0 **** 0.06
30896 C 109.20052170121635 67.15028391491447 75.07050428566222 C 0.0 **** -0.24
30897 H 108.84253825529007 68.10076948144874 75.4664244283652 H 0.0 **** 0.06
30898 H 109.90923806591758 67.33743820133631 74.26293251282036 H 0.0 **** 0.06
30899 H 108.3569908444313 66.57552678449525 74.68794494488326 H 0.0 **** 0.06
30900 H 109.6930323831406 66.5886392880497 75.86409500639236 H 0.0 **** 0.06
30901 C 94.44312561647573 122.68320886255293 66.33837546464659 C 0.0 **** -0.24
30902 H 95.25882226299537 122.10715180939636 66.77312580448451 H 0.0 **** 0.06
30903 H 93.4897744981313 122.26013227486638 66.65536847214597 H 0.0 **** 0.06
30904 H 94.51295604156768 122.64692809546207 65.25039604357112 H 0.0 **** 0.06
30905 H 94.51072247558724 123.7183411845364 66.67218890860619 H 0.0 **** 0.06
30906 C 21.460525241465007 8.32644802920683 40.49212286237557 C 0.0 **** -0.24
30907 H 20.382410258605262 8.271279743678434 40.33868787683383 H 0.0 **** 0.06
30908 H 21.9162170064173 8.875775427212034 39.668364325915945 H 0.0 **** 0.06
30909 H 21.873382286170767 7.3175926321588065 40.530025896121515 H 0.0 **** 0.06
30910 H 21.667963529399117 8.838602815996325 41.431297233557245 H 0.0 **** 0.06
30911 C 64.32442902443721 60.90811036680361 6.15128026244129 C 0.0 **** -0.24
30912 H 63.716916991681245 60.592432672988906 5.302323547968257 H 0.0 **** 0.06
30913 H 63.94211961031728 61.8517047928282 6.5399597593511345 H 0.0 **** 0.06
30914 H 65.35759088677072 61.03811884563501 5.830185210260581 H 0.0 **** 0.06
30915 H 64.2792311566399 60.147834913929074 6.9324890796093825 H 0.0 **** 0.06
30916 C 36.906323612836765 106.48669327007065 122.67473606420324 C 0.0 **** -0.24
30917 H 37.87405479959147 106.01502636830608 122.84815878984973 H 0.0 **** 0.06
30918 H 36.86480711569674 107.43492147324665 123.21056845916523 H 0.0 **** 0.06
30919 H 36.11376715920394 105.8306264032226 123.03322063333579 H 0.0 **** 0.06
30920 H 36.775698542286996 106.66489478421701 121.60731251929471 H 0.0 **** 0.06
30921 C 91.8595819074331 82.00177702160855 80.39480890528631 C 0.0 **** -0.24
30922 H 91.63488960034675 81.15571053630038 79.74512775838883 H 0.0 **** 0.06
30923 H 92.54209334839322 82.68107674319839 79.88310314760298 H 0.0 **** 0.06
30924 H 92.32550189838003 81.64192388688407 81.31189612301023 H 0.0 **** 0.06
30925 H 90.93682489439277 82.52810300511283 80.63771244339381 H 0.0 **** 0.06
30926 C 106.25231936893647 57.758621019848135 59.820706664112194 C 0.0 **** -0.24
30927 H 106.16633240879567 56.671989828764765 59.83349792032365 H 0.0 **** 0.06
30928 H 105.29113403237588 58.19551443972961 59.547269886110385 H 0.0 **** 0.06
30929 H 107.00683424174281 58.05436385586651 59.091663320263024 H 0.0 **** 0.06
30930 H 106.54453350448904 58.111491974791306 60.809660498383295 H 0.0 **** 0.06
30931 C 3.043119273420359 9.390267668672351 37.15079478319336 C 0.0 **** -0.24
30932 H 3.4466893553909586 10.366323902607405 36.88256896064803 H 0.0 **** 0.06
30933 H 2.8764433849221405 9.349804905897258 38.227953873209 H 0.0 **** 0.06
30934 H 3.7514689286832095 8.613281032092175 36.863519246897624 H 0.0 **** 0.06
30935 H 2.098873064816928 9.231572449646336 36.63086827033328 H 0.0 **** 0.06
30936 C 27.882361604993065 38.63877680626487 117.00159426236655 C 0.0 **** -0.24
30937 H 27.173995355595537 39.36723576592641 117.39558980111885 H 0.0 **** 0.06
30938 H 28.586650448783665 38.35663796217628 117.7847447266246 H 0.0 **** 0.06
30939 H 28.426470907164266 39.07788092835952 116.16477803442392 H 0.0 **** 0.06
30940 H 27.342941947779792 37.75572435720554 116.66127466161208 H 0.0 **** 0.06
30941 C 53.75163607022333 77.61376228948697 3.4014019436743865 C 0.0 **** -0.24
30942 H 52.716689773082436 77.93478102368556 3.516878387937169 H 0.0 **** 0.06
30943 H 54.37828193931827 78.13896937927105 4.122659324104347 H 0.0 **** 0.06
30944 H 54.091710764225255 77.84139205975335 2.3905499956564285 H 0.0 **** 0.06
30945 H 53.820275744483354 76.53939565768361 3.5742680281172454 H 0.0 **** 0.06
30946 C 98.89210657552687 90.84432807578594 1.9573265446678647 C 0.0 **** -0.24
30947 H 99.89202512337997 90.5819337386983 2.3048706284544096 H 0.0 **** 0.06
30948 H 98.96400444397366 91.62706696837529 1.2017418275488012 H 0.0 **** 0.06
30949 H 98.29767026458396 91.20299738710598 2.797508961653591 H 0.0 **** 0.06
30950 H 98.4162491908794 89.96412230976925 1.5240618335600402 H 0.0 **** 0.06
30951 C 15.519658021579971 92.1492926394796 115.1474420417621 C 0.0 **** -0.24
30952 H 15.515058718632645 91.10246866644644 114.8462709266876 H 0.0 **** 0.06
30953 H 15.865183992037828 92.76515064260019 114.3174791516852 H 0.0 **** 0.06
30954 H 16.18803815632532 92.27946641826404 115.99899152828696 H 0.0 **** 0.06
30955 H 14.51050058436607 92.44999939475451 115.42843030468389 H 0.0 **** 0.06
30956 C 38.06568641528821 94.96245964974938 100.85646449789806 C 0.0 **** -0.24
30957 H 38.84703690550606 95.00279417184963 101.61551407136352 H 0.0 **** 0.06
30958 H 37.09099416056799 95.07140288150889 101.33322769549858 H 0.0 **** 0.06
30959 H 38.11294289338514 94.00440974638988 100.33874264552458 H 0.0 **** 0.06
30960 H 38.213463574751245 95.77088300252868 100.14011030835775 H 0.0 **** 0.06
30961 C 18.73224805606042 51.39202343921178 120.87930369293422 C 0.0 **** -0.24
30962 H 18.61959736829117 50.38020571813464 120.49035072661282 H 0.0 **** 0.06
30963 H 19.766319870728633 51.5515602735231 121.18450555575475 H 0.0 **** 0.06
30964 H 18.074732623109632 51.52540732477816 121.73926007796973 H 0.0 **** 0.06
30965 H 18.4663453811117 52.110631011122166 120.1040620325335 H 0.0 **** 0.06
30966 C 103.33075957578254 27.978900941372927 117.92364137392485 C 0.0 **** -0.24
30967 H 102.41406221374261 27.932684029753773 117.33467981554924 H 0.0 **** 0.06
30968 H 103.41598869472692 27.079266285236613 118.53339805187551 H 0.0 **** 0.06
30969 H 103.30209312016875 28.855105346745347 118.57093864083913 H 0.0 **** 0.06
30970 H 104.18896903618341 28.048433570810474 117.25501931380472 H 0.0 **** 0.06
30971 C 60.493730884374955 109.26453077498746 118.07742439845728 C 0.0 **** -0.24
30972 H 60.876787652465936 110.27901793388548 117.96020619483322 H 0.0 **** 0.06
30973 H 59.536600787069375 109.17599825344598 117.5637497347007 H 0.0 **** 0.06
30974 H 60.35963201236606 109.04878504914751 119.13816756590745 H 0.0 **** 0.06
30975 H 61.203282928104656 108.55690809966416 117.64967364932009 H 0.0 **** 0.06
30976 C 16.095946486517803 26.205082084680313 86.01762010073458 C 0.0 **** -0.24
30977 H 15.305211053393805 25.464970578298136 86.13784117479773 H 0.0 **** 0.06
30978 H 16.92327382963211 25.76644705456556 85.46003022695255 H 0.0 **** 0.06
30979 H 16.44673657304125 26.522977685993126 86.99942120372476 H 0.0 **** 0.06
30980 H 15.70640715203271 27.06660885681798 85.47413090882 H 0.0 **** 0.06
30981 C 64.27623292692695 68.29099091741023 3.3417826142470055 C 0.0 **** -0.24
30982 H 63.31806747707678 68.7087694665014 3.033680793581434 H 0.0 **** 0.06
30983 H 64.13804055209981 67.25429882483735 3.6486442668921413 H 0.0 **** 0.06
30984 H 64.67319003070637 68.86757525244832 4.176867778347713 H 0.0 **** 0.06
30985 H 64.9758367976715 68.33349745357327 2.5059558261708226 H 0.0 **** 0.06
30986 C 108.37262178258419 115.46388366516737 118.66140901885356 C 0.0 **** -0.24
30987 H 108.26139660031902 116.52447156604254 118.43563042087135 H 0.0 **** 0.06
30988 H 109.22062570639702 115.0622803089166 118.10592288713178 H 0.0 **** 0.06
30989 H 107.46469299136584 114.93487286586407 118.37364604006416 H 0.0 **** 0.06
30990 H 108.54444605453759 115.33625857118324 119.73060872430318 H 0.0 **** 0.06
30991 C 111.19044687292507 62.54877483844072 61.26853350352184 C 0.0 **** -0.24
30992 H 111.84410803911965 62.153869673278905 60.490552322819696 H 0.0 **** 0.06
30993 H 111.71964829353129 62.550388223546776 62.22177061645624 H 0.0 **** 0.06
30994 H 110.30074014672863 61.92382340838961 61.3468876234959 H 0.0 **** 0.06
30995 H 110.8977021224818 63.56756580889291 61.01368609353095 H 0.0 **** 0.06
30996 C 56.58917136255047 34.56515514361519 18.9870072444661 C 0.0 **** -0.24
30997 H 56.87021355440305 33.54481651360886 18.728368475448576 H 0.0 **** 0.06
30998 H 56.98765383612556 34.81384340300844 19.970418936043814 H 0.0 **** 0.06
30999 H 55.502607001843614 34.64962086457902 19.00275950931257 H 0.0 **** 0.06
31000 H 56.99580990916172 35.252567217977024 18.24514509595525 H 0.0 **** 0.06
31001 C 110.60938918062914 7.877962210228532 54.00310266183837 C 0.0 **** -0.24
31002 H 111.56457049495691 8.254944558419652 53.63833061915645 H 0.0 **** 0.06
31003 H 109.96548575872347 7.638110309337662 53.15529589914192 H 0.0 **** 0.06
31004 H 110.13013694453487 8.638839165578986 54.61923435812815 H 0.0 **** 0.06
31005 H 110.77562371436638 6.979942544813099 54.59814507197939 H 0.0 **** 0.06
31006 C 36.49365580517028 57.23492815801637 50.7045422538379 C 0.0 **** -0.24
31007 H 36.837271660707785 56.23266550474602 50.44965326577592 H 0.0 **** 0.06
31008 H 37.1000672036466 57.97208555496104 50.177059587616554 H 0.0 **** 0.06
31009 H 36.58776885253823 57.38893668706197 51.77911973868552 H 0.0 **** 0.06
31010 H 35.449616030349915 57.3458041872463 50.411366247823054 H 0.0 **** 0.06
31011 C 46.71944592157027 122.09437689822556 48.54542882199697 C 0.0 **** -0.24
31012 H 45.90098415304237 122.18843041736338 47.832600014400896 H 0.0 **** 0.06
31013 H 46.36592448477485 122.36554161350517 49.54137617110025 H 0.0 **** 0.06
31014 H 47.532940945656264 122.7586238062768 48.255348580270855 H 0.0 **** 0.06
31015 H 47.076154430716 121.06424652568711 48.5547123143719 H 0.0 **** 0.06
31016 C 108.49855133798467 52.90239889815854 16.924765991126066 C 0.0 **** -0.24
31017 H 108.80869632320842 52.726586159802224 15.894751587179314 H 0.0 **** 0.06
31018 H 109.18029514245957 53.614041370826 17.393202987359516 H 0.0 **** 0.06
31019 H 108.51910675723515 51.962179761852326 17.47621062137091 H 0.0 **** 0.06
31020 H 107.48715336739816 53.3077363898808 16.934980122177393 H 0.0 **** 0.06
31021 C 52.58551563801532 31.894685321929046 30.23230790000258 C 0.0 **** -0.24
31022 H 53.13113181061496 32.77660032498178 29.895459757000594 H 0.0 **** 0.06
31023 H 52.4750829305996 31.196675134203055 29.401650827642754 H 0.0 **** 0.06
31024 H 51.59965622009193 32.19329083682875 30.589828115723492 H 0.0 **** 0.06
31025 H 53.13567578782988 31.414095741804708 31.04004675873057 H 0.0 **** 0.06
31026 C 64.20956368676053 23.09643419517233 52.53138414724614 C 0.0 **** -0.24
31027 H 64.75477743832026 23.873794726795502 51.99514508719213 H 0.0 **** 0.06
31028 H 63.97622174347423 22.280165087796767 51.847973602728445 H 0.0 **** 0.06
31029 H 63.28488034125057 23.51233991879004 52.93174630532039 H 0.0 **** 0.06
31030 H 64.82403521683905 22.72266617831491 53.34976722245344 H 0.0 **** 0.06
31031 C 4.414707558465537 124.0807539336214 63.13784858555118 C 0.0 **** -0.24
31032 H 5.0867495036700525 123.49574375586567 63.76588873880178 H 0.0 **** 0.06
31033 H 4.551700426443674 123.7935870080662 62.09472784276676 H 0.0 **** 0.06
31034 H 4.638612594755749 125.1410415928439 63.25585422272792 H 0.0 **** 0.06
31035 H 3.3828842921045528 123.89147414657016 63.4343020062783 H 0.0 **** 0.06
31036 C 12.758526720124195 71.05218658088268 5.63395130804474 C 0.0 **** -0.24
31037 H 13.700209832526895 71.15487825268224 6.173006993694184 H 0.0 **** 0.06
31038 H 11.93481121192815 71.3600602062061 6.279256961050891 H 0.0 **** 0.06
31039 H 12.620052043201923 70.01191845618399 5.339911033518 H 0.0 **** 0.06
31040 H 12.77884316785537 71.68239043882213 4.744474450237572 H 0.0 **** 0.06
31041 C 12.160206205370844 20.06418691542082 80.19827145654372 C 0.0 **** -0.24
31042 H 11.695357244120249 20.68625082529558 80.9641883754971 H 0.0 **** 0.06
31043 H 11.618817673819343 19.12210504866791 80.11882425063706 H 0.0 **** 0.06
31044 H 13.19627069860632 19.86723157178419 80.47055177528934 H 0.0 **** 0.06
31045 H 12.128033803971128 20.584779347752118 79.24015545791438 H 0.0 **** 0.06
31046 C 55.0440091381227 53.22919971600389 20.679619918030767 C 0.0 **** -0.24
31047 H 55.36180338970016 54.271309843359745 20.718298382105473 H 0.0 **** 0.06
31048 H 54.00059814236667 53.15667843592743 20.986663681043147 H 0.0 **** 0.06
31049 H 55.663561576376054 52.63512210320748 21.35141101049446 H 0.0 **** 0.06
31050 H 55.14989349924096 52.85588824903465 19.661044071070954 H 0.0 **** 0.06
31051 C 43.13858145024144 52.79066609005852 89.64156667774898 C 0.0 **** -0.24
31052 H 42.54606950573441 52.038492232598145 89.1219892332644 H 0.0 **** 0.06
31053 H 43.053914058002576 53.74418026016926 89.11932543051677 H 0.0 **** 0.06
31054 H 44.18336094195402 52.479585999584145 89.66296142214009 H 0.0 **** 0.06
31055 H 42.77150813982281 52.90075619812413 90.66276506498045 H 0.0 **** 0.06
31056 C 21.986835676840144 83.84555102293078 46.25862006422998 C 0.0 **** -0.24
31057 H 22.937539743725097 84.16625844558848 46.68346731233332 H 0.0 **** 0.06
31058 H 21.314819527099587 84.70080151353545 46.185417490645456 H 0.0 **** 0.06
31059 H 21.540586469220727 83.08491059112293 46.89896486710042 H 0.0 **** 0.06
31060 H 22.1554506651197 83.4296180089404 45.26450663712949 H 0.0 **** 0.06
31061 C 87.2355088777864 13.375310174472133 45.68427681422676 C 0.0 **** -0.24
31062 H 87.67528258915678 14.25001192752103 45.203020395245346 H 0.0 **** 0.06
31063 H 86.15925438334777 13.370070848872501 45.51369403452223 H 0.0 **** 0.06
31064 H 87.43428539109117 13.410970900378288 46.7549377613189 H 0.0 **** 0.06
31065 H 87.6750337279975 12.470990177669933 45.26228628417522 H 0.0 **** 0.06
31066 C 21.374917255670425 97.71564930063177 93.37328514090257 C 0.0 **** -0.24
31067 H 22.122903839650462 97.01319408023024 93.7389877024726 H 0.0 **** 0.06
31068 H 20.947803264018347 97.34131115930148 92.44231126176754 H 0.0 **** 0.06
31069 H 21.841951648838972 98.68438357934035 93.19531467331691 H 0.0 **** 0.06
31070 H 20.584388314036147 97.82456013116747 94.11715961964009 H 0.0 **** 0.06
31071 C 49.33947890747477 14.27274760399203 35.3201109392121 C 0.0 **** -0.24
31072 H 48.39025407099328 14.17478629510498 35.846785880627266 H 0.0 **** 0.06
31073 H 49.37327881199953 15.235542071079323 34.809019799123575 H 0.0 **** 0.06
31074 H 49.43316721017444 13.469638144349773 34.58998400671828 H 0.0 **** 0.06
31075 H 50.159202139605675 14.211722851492397 36.035330808540095 H 0.0 **** 0.06
31076 C 18.062276497318294 65.19601371601452 5.110592685909182 C 0.0 **** -0.24
31077 H 18.80804830445561 65.67760408533188 4.47977676664874 H 0.0 **** 0.06
31078 H 18.562014503813614 64.6143454644103 5.885771196924793 H 0.0 **** 0.06
31079 H 17.443795072936155 64.53546252022416 4.501969966123653 H 0.0 **** 0.06
31080 H 17.433705243667006 65.95607527918219 5.575398393575 H 0.0 **** 0.06
31081 C 94.82991382989644 39.77784185531743 5.901847361550182 C 0.0 **** -0.24
31082 H 95.28412875706414 40.13745495003579 4.978921637145135 H 0.0 **** 0.06
31083 H 93.93056799374773 40.3560454184931 6.113548580122853 H 0.0 **** 0.06
31084 H 95.53764955516806 39.89130905538193 6.723641191390257 H 0.0 **** 0.06
31085 H 94.56858893331776 38.72542701592697 5.791565869790119 H 0.0 **** 0.06
31086 C 5.8096614967537334 39.35554432661495 93.85899460860156 C 0.0 **** -0.24
31087 H 5.483887619173132 39.46016602507764 94.89481094809634 H 0.0 **** 0.06
31088 H 6.792821251636212 39.81271669862329 93.73969197226711 H 0.0 **** 0.06
31089 H 5.096136930982738 39.85210998788139 93.20212483817376 H 0.0 **** 0.06
31090 H 5.866209405850597 38.29830257166276 93.60149146734123 H 0.0 **** 0.06
31091 C 29.810810053223122 62.872802092612304 10.43627583022267 C 0.0 **** -0.24
31092 H 30.551378364913546 63.594242399841406 10.089173200806798 H 0.0 **** 0.06
31093 H 29.02997813122576 63.39213434733311 10.991964799709422 H 0.0 **** 0.06
31094 H 30.29315641179258 62.14054605538196 11.083852697700522 H 0.0 **** 0.06
31095 H 29.370764881664456 62.36409934239241 9.578765803093034 H 0.0 **** 0.06
31096 C 29.226362215180814 58.32203061849377 25.619880037892415 C 0.0 **** -0.24
31097 H 30.114756446269524 57.691302891035036 25.592186782930924 H 0.0 **** 0.06
31098 H 29.17140400182302 58.83023033427756 26.58303962846506 H 0.0 **** 0.06
31099 H 28.338138617458128 57.70396872603932 25.48303293854616 H 0.0 **** 0.06
31100 H 29.279952688842016 59.06086329493378 24.82056844666033 H 0.0 **** 0.06
31101 C 54.04261572264855 111.09991929718275 59.395752011389334 C 0.0 **** -0.24
31102 H 53.58815846780156 111.99941711268337 59.80976521556953 H 0.0 **** 0.06
31103 H 53.741711580970076 110.23529562133659 59.9880925815536 H 0.0 **** 0.06
31104 H 55.12791158209876 111.19607138808891 59.41994618912247 H 0.0 **** 0.06
31105 H 53.71207614744404 110.96763213573111 58.36499429834102 H 0.0 **** 0.06
31106 C 10.146282666902266 40.61508275307537 36.582001250512775 C 0.0 **** -0.24
31107 H 10.502264674274613 41.60819480939878 36.306881290576825 H 0.0 **** 0.06
31108 H 9.518472357464134 40.688645224754595 37.46980948817722 H 0.0 **** 0.06
31109 H 10.99939713807538 39.96979341121465 36.79311995507956 H 0.0 **** 0.06
31110 H 9.567347446433189 40.19638205189486 35.75932002650609 H 0.0 **** 0.06
31111 C 67.562158589932 43.429827531766136 2.8599104276072875 C 0.0 **** -0.24
31112 H 67.07796469982756 43.312415668873825 3.8293878327151987 H 0.0 **** 0.06
31113 H 68.6379702523521 43.536242568896625 3.0024827363969244 H 0.0 **** 0.06
31114 H 67.17112145099318 44.3189100826537 2.3651530284963105 H 0.0 **** 0.06
31115 H 67.36096507110125 42.553552105406084 2.2449306163151554 H 0.0 **** 0.06
31116 C 86.79213577472413 56.64205159798439 91.01486517819126 C 0.0 **** -0.24
31117 H 87.01770540975767 57.70162836812487 91.13904715527215 H 0.0 **** 0.06
31118 H 87.41901673108069 56.22803424708778 90.22442563919097 H 0.0 **** 0.06
31119 H 85.7423837066647 56.52433047387949 90.7459822270881 H 0.0 **** 0.06
31120 H 86.98960001218998 56.116625354119975 91.9485373770231 H 0.0 **** 0.06
31121 C 31.892985980129204 104.70127369802651 67.14726918379469 C 0.0 **** -0.24
31122 H 32.08439234622445 105.54439391398586 67.81110923624598 H 0.0 **** 0.06
31123 H 32.76938326148203 104.524773226955 66.5227932798673 H 0.0 **** 0.06
31124 H 31.033732045622614 104.925354438623 66.51403598783011 H 0.0 **** 0.06
31125 H 31.684055689100106 103.81188788325329 67.74149447341007 H 0.0 **** 0.06
31126 C 34.40279696038058 52.891697524434306 122.87339791146154 C 0.0 **** -0.24
31127 H 33.6755036869563 52.08037637584208 122.89456795758221 H 0.0 **** 0.06
31128 H 35.401217040795736 52.48901147596399 123.04780853896588 H 0.0 **** 0.06
31129 H 34.1622451139129 53.61587643458904 123.6519359255842 H 0.0 **** 0.06
31130 H 34.37345812491413 53.38066434280741 121.9001336402865 H 0.0 **** 0.06
31131 C 46.50262607003986 35.69680997293494 87.35323421445264 C 0.0 **** -0.24
31132 H 46.04297811944945 36.402449816607714 86.660583562206 H 0.0 **** 0.06
31133 H 47.55405912754357 35.56820879979 87.09571919560886 H 0.0 **** 0.06
31134 H 45.99099468254386 34.73654147247535 87.28577715307435 H 0.0 **** 0.06
31135 H 46.42076415280475 36.082024786328844 88.36978814859617 H 0.0 **** 0.06
31136 C 2.691810486893921 41.21748467535075 43.0391249155494 C 0.0 **** -0.24
31137 H 1.6444526406196172 41.068141383459306 42.77611950145335 H 0.0 **** 0.06
31138 H 3.0987666430602943 42.04273877573637 42.453240830459684 H 0.0 **** 0.06
31139 H 3.253380487383577 40.3078196828495 42.8242237918418 H 0.0 **** 0.06
31140 H 2.771270214985755 41.451155463622 44.10054933165375 H 0.0 **** 0.06
31141 C 70.4896399820116 34.483964084003276 97.73673177929777 C 0.0 **** -0.24
31142 H 69.81224718394247 34.28203944147367 96.90620772018715 H 0.0 **** 0.06
31143 H 70.20269199160221 33.87618394762808 98.59497001822365 H 0.0 **** 0.06
31144 H 70.4307055668957 35.53972268579321 98.00376227635778 H 0.0 **** 0.06
31145 H 71.50953789193913 34.23946779035799 97.44239788324776 H 0.0 **** 0.06
31146 C 35.99408413838182 113.90116185852014 71.2590926188844 C 0.0 **** -0.24
31147 H 36.02924042166583 114.8982822514071 71.69898887107772 H 0.0 **** 0.06
31148 H 35.40319160534821 113.92920090852468 70.34348596620165 H 0.0 **** 0.06
31149 H 35.53751005438406 113.20870117222825 71.96595681014594 H 0.0 **** 0.06
31150 H 37.00679256370964 113.57025887274514 71.02872428640852 H 0.0 **** 0.06
31151 C 107.46444080318642 71.80967312996886 55.08267834918115 C 0.0 **** -0.24
31152 H 107.1023139302211 72.29675662804962 54.177219068837246 H 0.0 **** 0.06
31153 H 108.50439963500509 72.08947551078941 55.253771935030784 H 0.0 **** 0.06
31154 H 107.39343674846194 70.72813315958658 54.9656166404435 H 0.0 **** 0.06
31155 H 106.85812166935783 72.12461540577932 55.93099791734488 H 0.0 **** 0.06
31156 C 111.87089953184619 93.23056876320229 30.494002308571396 C 0.0 **** -0.24
31157 H 112.86725555453928 93.28397510640966 30.931787757197952 H 0.0 **** 0.06
31158 H 111.47587116296285 94.23928223108433 30.36643065454669 H 0.0 **** 0.06
31159 H 111.21356218976983 92.66294245868482 31.15295657572284 H 0.0 **** 0.06
31160 H 111.92674819390905 92.73769303643687 29.523669311817542 H 0.0 **** 0.06
31161 C 81.33614144323522 103.9011673050834 78.81892632325618 C 0.0 **** -0.24
31162 H 82.03743021244466 103.10821900231664 78.56097922567479 H 0.0 **** 0.06
31163 H 80.9421559626897 103.7262280224103 79.82033104881543 H 0.0 **** 0.06
31164 H 80.5161815671876 103.90870580625784 78.10099201941696 H 0.0 **** 0.06
31165 H 81.8498874655424 104.86234587617643 78.7937568216694 H 0.0 **** 0.06
31166 C 60.42643447790856 58.22273169874461 18.333188356277674 C 0.0 **** -0.24
31167 H 61.39458091221212 58.679166427167246 18.12902791536274 H 0.0 **** 0.06
31168 H 60.4389889081902 57.77505972102935 19.32752731092873 H 0.0 **** 0.06
31169 H 60.22534662595092 57.451435561200725 17.588990998059103 H 0.0 **** 0.06
31170 H 59.648064302492685 58.984688972756345 18.286855694108965 H 0.0 **** 0.06
31171 C 49.88035331097248 44.555399337531384 55.922347291399475 C 0.0 **** -0.24
31172 H 50.49189818392705 44.500026783885204 56.82282463456565 H 0.0 **** 0.06
31173 H 49.89374134953147 43.59098128516271 55.41459116145192 H 0.0 **** 0.06
31174 H 50.28021256200847 45.32169231566641 55.25880202572526 H 0.0 **** 0.06
31175 H 48.85587520416584 44.809895249457185 56.19538609433668 H 0.0 **** 0.06
31176 C 8.456093765387095 49.792885153948106 92.06813934826062 C 0.0 **** -0.24
31177 H 8.696117448702182 49.16709397132661 92.92789672722836 H 0.0 **** 0.06
31178 H 7.809265318732656 49.24047688424976 91.38667932597741 H 0.0 **** 0.06
31179 H 9.374925801443254 50.0724223554452 91.55359557129088 H 0.0 **** 0.06
31180 H 7.941423786100017 50.69281870107867 92.40728418523224 H 0.0 **** 0.06
31181 C 116.84550164465226 50.52979970209296 102.96020008280368 C 0.0 **** -0.24
31182 H 115.76466613645961 50.532149625854885 103.10030638215912 H 0.0 **** 0.06
31183 H 117.08492010416444 50.089253564333575 101.9923351066034 H 0.0 **** 0.06
31184 H 117.31337950803616 49.94522858051273 103.75216637120337 H 0.0 **** 0.06
31185 H 117.21758545775113 51.55426131211398 102.99610014666382 H 0.0 **** 0.06
31186 C 107.08850167204511 108.40486819961474 115.64916787706045 C 0.0 **** -0.24
31187 H 106.81220214962539 107.4491744991775 115.20202817450263 H 0.0 **** 0.06
31188 H 107.33374480089847 109.11702628352869 114.86093922624781 H 0.0 **** 0.06
31189 H 107.95324845778424 108.26612351454006 116.29728866989512 H 0.0 **** 0.06
31190 H 106.25150625505714 108.78575568511938 116.23604453139404 H 0.0 **** 0.06
31191 C 14.694933581042676 75.30496090634838 44.43953694871601 C 0.0 **** -0.24
31192 H 13.609539161797532 75.37166345710851 44.51987671949985 H 0.0 **** 0.06
31193 H 14.965861898557321 74.99318460954927 43.430972087692794 H 0.0 **** 0.06
31194 H 15.067002282128591 74.57488686426969 45.158768841700294 H 0.0 **** 0.06
31195 H 15.134402817592008 76.27991121336605 44.65007528224618 H 0.0 **** 0.06
31196 C 94.29740905177287 85.76836998766802 64.6658715185721 C 0.0 **** -0.24
31197 H 94.35309558842447 84.68288117337346 64.58673412876433 H 0.0 **** 0.06
31198 H 94.8138537159655 86.09386599122368 65.5697044935279 H 0.0 **** 0.06
31199 H 93.25305681845816 86.07586408282248 64.71205009902569 H 0.0 **** 0.06
31200 H 94.77083090711196 86.22131382803641 63.79383114148207 H 0.0 **** 0.06
31201 C 108.90583431395025 84.86114743366825 76.81891394212897 C 0.0 **** -0.24
31202 H 108.9181892581175 83.78353520701606 76.9845762226694 H 0.0 **** 0.06
31203 H 109.09340700816084 85.37532364028071 77.76192828951756 H 0.0 **** 0.06
31204 H 107.93188766177056 85.15702750414425 76.42934931640113 H 0.0 **** 0.06
31205 H 109.68104989549285 85.12578059846241 76.09996346723713 H 0.0 **** 0.06
31206 C 0.6639186376214354 117.18905720282632 94.72591474742691 C 0.0 **** -0.24
31207 H 1.4645169700697238 116.45466221549438 94.63596456752461 H 0.0 **** 0.06
31208 H -0.11783813379298635 116.7965901066214 95.37647423883229 H 0.0 **** 0.06
31209 H 0.24691419227676192 117.39619601885988 93.74051965181926 H 0.0 **** 0.06
31210 H 1.0630721326527208 118.11055160590517 95.15207242471845 H 0.0 **** 0.06
31211 C 56.825322788668046 101.0217623207049 67.88387257130472 C 0.0 **** -0.24
31212 H 56.01549401255397 100.37919941091161 68.23118803833836 H 0.0 **** 0.06
31213 H 56.71216941124304 101.20292413244312 66.81466236866737 H 0.0 **** 0.06
31214 H 57.78155850155781 100.53430826742844 68.07088715315268 H 0.0 **** 0.06
31215 H 56.789895474196385 101.97106308894509 68.419029279509 H 0.0 **** 0.06
31216 C 68.4081040024148 29.86601670863564 32.59330683443247 C 0.0 **** -0.24
31217 H 68.26522651821307 29.46910097190414 33.59829520339338 H 0.0 **** 0.06
31218 H 67.56480323145246 30.507340180740016 32.33275004414443 H 0.0 **** 0.06
31219 H 68.47125945928417 29.04183268673043 31.882596761283168 H 0.0 **** 0.06
31220 H 69.32912613736474 30.446763392881337 32.559348807073576 H 0.0 **** 0.06
31221 C 112.00898097836651 45.12682733285956 35.40784252294986 C 0.0 **** -0.24
31222 H 112.25483364993306 44.08705485150671 35.19340528610621 H 0.0 **** 0.06
31223 H 112.91976218736613 45.67238338888218 35.65331319123579 H 0.0 **** 0.06
31224 H 111.32017112414883 45.17132810780673 36.25184631989155 H 0.0 **** 0.06
31225 H 111.54009777576908 45.57608293799836 34.531988831893955 H 0.0 **** 0.06
31226 C 67.92731312472682 12.470613475779174 108.3378174673788 C 0.0 **** -0.24
31227 H 67.08205259503177 12.124208487506614 107.74334298079737 H 0.0 **** 0.06
31228 H 68.26782157438913 11.666166461323868 108.98925562167068 H 0.0 **** 0.06
31229 H 67.61958135774978 13.323761282604256 108.94345164195319 H 0.0 **** 0.06
31230 H 68.73843357330645 12.770020011816285 107.67472621765003 H 0.0 **** 0.06
31231 C 90.55242050848129 72.57824557000288 70.40997341384568 C 0.0 **** -0.24
31232 H 89.75652944677614 71.98407617761565 69.96130779129234 H 0.0 **** 0.06
31233 H 91.29631319769065 71.91467103846001 70.85061635640612 H 0.0 **** 0.06
31234 H 90.1331915235057 73.22103777931922 71.18474499310308 H 0.0 **** 0.06
31235 H 91.02244312528525 73.19394914478562 69.64223281549225 H 0.0 **** 0.06
31236 C 106.1352997124124 38.14241305473789 29.103708115183792 C 0.0 **** -0.24
31237 H 106.73117569933822 37.59171502426122 29.831623769369372 H 0.0 **** 0.06
31238 H 106.21903210187565 37.66328254687471 28.127638130950658 H 0.0 **** 0.06
31239 H 106.49994439720518 39.16779302726957 29.03807349248359 H 0.0 **** 0.06
31240 H 105.09155414864753 38.14758380653657 29.418602057078004 H 0.0 **** 0.06
31241 C 78.1754279803601 90.64039266612156 6.384561650800322 C 0.0 **** -0.24
31242 H 77.82886893005445 89.61684787301704 6.528445655634357 H 0.0 **** 0.06
31243 H 78.86091095661328 90.90738578660742 7.189345789570893 H 0.0 **** 0.06
31244 H 77.32128546680707 91.31755902812381 6.394153173986837 H 0.0 **** 0.06
31245 H 78.69152872080656 90.71808448078659 5.427465661776324 H 0.0 **** 0.06
31246 C 108.19099817479024 62.39610708403288 56.47216105312168 C 0.0 **** -0.24
31247 H 108.7123504099031 61.98812722562906 57.33733497686302 H 0.0 **** 0.06
31248 H 108.84691838048558 62.36044058609684 55.602472442847045 H 0.0 **** 0.06
31249 H 107.90856140513823 63.430641430795035 56.67285480475499 H 0.0 **** 0.06
31250 H 107.2945557507152 61.807000518037086 56.27647715851023 H 0.0 **** 0.06
31251 C 124.02202693700892 23.937869937377677 73.94364189913561 C 0.0 **** -0.24
31252 H 123.76920548758861 22.89438049111478 73.75726656188431 H 0.0 **** 0.06
31253 H 125.10503299969727 24.061736369896465 73.9072034444295 H 0.0 **** 0.06
31254 H 123.65607212888679 24.229131638926347 74.92816533892017 H 0.0 **** 0.06
31255 H 123.5578577953477 24.566098517930072 73.18333895294711 H 0.0 **** 0.06
31256 C 92.94569054193508 109.36675320882725 76.68649993942984 C 0.0 **** -0.24
31257 H 92.09482526516717 109.4549555267954 77.3629002657907 H 0.0 **** 0.06
31258 H 93.12811757471968 110.32794213210397 76.20637087729571 H 0.0 **** 0.06
31259 H 92.72924986085566 108.61513996742052 75.92815463076039 H 0.0 **** 0.06
31260 H 93.82857709437009 109.06887522558205 77.25218249689499 H 0.0 **** 0.06
31261 C 29.20222817772779 24.524215549204 36.04143936613667 C 0.0 **** -0.24
31262 H 28.66766680959836 25.462437933594614 36.19118457085824 H 0.0 **** 0.06
31263 H 30.26858716574739 24.72613726131504 35.940425319292444 H 0.0 **** 0.06
31264 H 28.83609912994696 24.037500550620585 35.1372381937897 H 0.0 **** 0.06
31265 H 29.036155687714285 23.871066128161587 36.89857034178658 H 0.0 **** 0.06
31266 C 32.834737507772104 23.2733886479009 49.94653200116099 C 0.0 **** -0.24
31267 H 32.22466453075367 23.566708200519216 50.800932560874344 H 0.0 **** 0.06
31268 H 33.877292758451404 23.197600627086842 50.25357494595926 H 0.0 **** 0.06
31269 H 32.74060096355811 24.021018435503876 49.158947263651555 H 0.0 **** 0.06
31270 H 32.494617773597895 22.307416866767234 49.572230206492804 H 0.0 **** 0.06
31271 C 39.16533075228677 18.891031796507917 104.2477763821195 C 0.0 **** -0.24
31272 H 39.6920197406629 19.72056265731888 103.77616005596698 H 0.0 **** 0.06
31273 H 39.40461624807644 18.865258823605444 105.31122311422575 H 0.0 **** 0.06
31274 H 39.47351554810405 17.95392778696376 103.78337574482885 H 0.0 **** 0.06
31275 H 38.09091825953934 19.02364246363436 104.11971808852903 H 0.0 **** 0.06
31276 C 34.289594659896636 36.97966877437852 8.409823361413572 C 0.0 **** -0.24
31277 H 33.67178005538419 37.71421595092799 7.893142344821882 H 0.0 **** 0.06
31278 H 34.68345975917761 36.26525215676572 7.686365048473604 H 0.0 **** 0.06
31279 H 33.68643034812335 36.453638863926585 9.149533460730623 H 0.0 **** 0.06
31280 H 35.11717280647375 37.485994086854916 8.90788546741301 H 0.0 **** 0.06
31281 C 4.708507434276328 24.739337497615992 18.040270489886126 C 0.0 **** -0.24
31282 H 4.221070731530574 25.677441791041844 18.307119777374623 H 0.0 **** 0.06
31283 H 4.614190141284894 24.034092458272823 18.866083057467222 H 0.0 **** 0.06
31284 H 5.764054801238672 24.92362077036995 17.837292153732903 H 0.0 **** 0.06
31285 H 4.234769553315459 24.324350989527233 17.151177540277843 H 0.0 **** 0.06
31286 C 54.843192473019116 83.63277582307522 97.93738883664184 C 0.0 **** -0.24
31287 H 54.27761987546032 82.71528028592674 98.10428509045079 H 0.0 **** 0.06
31288 H 54.8059332686133 83.89542146083818 96.87972075184382 H 0.0 **** 0.06
31289 H 55.88004441860741 83.47992514622246 98.2382284366638 H 0.0 **** 0.06
31290 H 54.408295362476366 84.43898280668263 98.52733752808194 H 0.0 **** 0.06
31291 C 26.817690277965497 34.42829762673382 61.97439431071703 C 0.0 **** -0.24
31292 H 27.4198447332572 33.97214319458442 61.18795365208538 H 0.0 **** 0.06
31293 H 27.460477688715144 35.019873510358565 62.62660443615391 H 0.0 **** 0.06
31294 H 26.328578811510774 33.64716352790356 62.55587790382975 H 0.0 **** 0.06
31295 H 26.062380980066884 35.07417459184141 61.5249729056176 H 0.0 **** 0.06
31296 C 58.67008843535888 93.88091410167978 98.41120753990066 C 0.0 **** -0.24
31297 H 57.64156920660568 93.66055156828854 98.12574257486517 H 0.0 **** 0.06
31298 H 58.84422513105025 93.54266232655009 99.43298730618511 H 0.0 **** 0.06
31299 H 58.84174362881231 94.95469709781561 98.34899673190063 H 0.0 **** 0.06
31300 H 59.353081562850065 93.36412657047742 97.73654779210915 H 0.0 **** 0.06
31301 C 42.90641159959365 106.3091352525098 84.48500417630632 C 0.0 **** -0.24
31302 H 41.821567104795975 106.24015689456968 84.56935552844416 H 0.0 **** 0.06
31303 H 43.369876197493085 105.75855888672274 85.30361515631913 H 0.0 **** 0.06
31304 H 43.20774070253731 107.35496767445483 84.53264823168746 H 0.0 **** 0.06
31305 H 43.22355441067733 105.882632299325 83.53317572819518 H 0.0 **** 0.06
31306 C 13.652230062797752 52.14079790822976 2.5150156567208626 C 0.0 **** -0.24
31307 H 13.024249313127019 51.34684104751764 2.110637867668771 H 0.0 **** 0.06
31308 H 13.93664093148585 52.82300949046069 1.7140471751220474 H 0.0 **** 0.06
31309 H 14.547673505378377 51.70576149442505 2.957931022384429 H 0.0 **** 0.06
31310 H 13.099091208721948 52.6877604944485 3.279281386072782 H 0.0 **** 0.06
31311 C 108.4884087840969 1.218743479599084 54.13263998392915 C 0.0 **** -0.24
31312 H 107.86076143263509 1.938383867953462 53.60674148014476 H 0.0 **** 0.06
31313 H 109.52418206484239 1.3429342619085674 53.81888850298907 H 0.0 **** 0.06
31314 H 108.15521848563542 0.20722134073970722 53.898505528045575 H 0.0 **** 0.06
31315 H 108.41038718014549 1.386973163882402 55.206856964780116 H 0.0 **** 0.06
31316 C 52.06542073948765 21.3067367598586 58.6666918165412 C 0.0 **** -0.24
31317 H 51.17277627523657 21.475038094793092 59.270176111396694 H 0.0 **** 0.06
31318 H 52.15953090662504 22.10523101739411 57.92900418625908 H 0.0 **** 0.06
31319 H 51.982251032306124 20.347984030795757 58.15518747339078 H 0.0 **** 0.06
31320 H 52.94427856994639 21.301133934599825 59.310175416168335 H 0.0 **** 0.06
31321 C 101.025923030247 77.10626427990327 17.307364394251366 C 0.0 **** -0.24
31322 H 101.78160816288475 76.64738194447543 16.670625331346145 H 0.0 **** 0.06
31323 H 100.03850905476992 76.94125310443388 16.875439984123133 H 0.0 **** 0.06
31324 H 101.21610859880161 78.17697261145138 17.38369159759901 H 0.0 **** 0.06
31325 H 101.06692796187434 76.65854294184419 18.300643277654146 H 0.0 **** 0.06
31326 C 95.11701833115771 21.7667646408822 71.695427178876 C 0.0 **** -0.24
31327 H 95.05957425180921 22.418176444348518 72.56680624949576 H 0.0 **** 0.06
31328 H 94.52894902678614 20.866347829542235 71.87573197333342 H 0.0 **** 0.06
31329 H 96.15579516201441 21.492559585198762 71.5140878890985 H 0.0 **** 0.06
31330 H 94.72189667583322 22.290737163605655 70.82409975747026 H 0.0 **** 0.06
31331 C 13.501185693529067 84.05022537781211 71.34163254788785 C 0.0 **** -0.24
31332 H 13.837173540259215 84.10055373737464 72.3777237471619 H 0.0 **** 0.06
31333 H 13.438310359225948 85.05854074053568 70.93148553759062 H 0.0 **** 0.06
31334 H 12.519498290983247 83.5784140765704 71.30020015681754 H 0.0 **** 0.06
31335 H 14.21177082476584 83.46442405759774 70.75806736683523 H 0.0 **** 0.06
31336 C 91.62047122604864 3.525259110898432 80.17820406690943 C 0.0 **** -0.24
31337 H 92.5218599864153 3.3598289986095438 80.76874611862611 H 0.0 **** 0.06
31338 H 91.41333659833887 2.6402567140693805 79.57667293407236 H 0.0 **** 0.06
31339 H 91.76905523424112 4.384095161660326 79.52248139656562 H 0.0 **** 0.06
31340 H 90.780385337239 3.718041942888675 80.84478124897207 H 0.0 **** 0.06
31341 C 22.38026286080011 53.10316765059983 22.079698818926488 C 0.0 **** -0.24
31342 H 23.38325253267775 52.72331159634375 22.272931262434923 H 0.0 **** 0.06
31343 H 21.645857486945488 52.436498807938975 22.532488114786872 H 0.0 **** 0.06
31344 H 22.211926852025023 53.15352724219828 21.003520554588448 H 0.0 **** 0.06
31345 H 22.280733066478582 54.10054383258684 22.509722490659954 H 0.0 **** 0.06
31346 C 27.01241426325231 60.915551509361705 45.54380763300446 C 0.0 **** -0.24
31347 H 26.68092488909315 60.92577362348031 46.5827556971508 H 0.0 **** 0.06
31348 H 27.05783313197435 61.93698854594828 45.16711257004371 H 0.0 **** 0.06
31349 H 26.309222982221286 60.337780387724834 44.94483584343256 H 0.0 **** 0.06
31350 H 28.00098019531137 60.46063423607764 45.48306745896913 H 0.0 **** 0.06
31351 C 79.62662630593775 15.125629913104426 41.58970961164808 C 0.0 **** -0.24
31352 H 80.5848007762823 14.72864903967238 41.25431643674541 H 0.0 **** 0.06
31353 H 79.79838983710965 15.96647160493767 42.26341011509994 H 0.0 **** 0.06
31354 H 79.07394716324796 14.346309919583195 42.114366468702045 H 0.0 **** 0.06
31355 H 79.05157609964266 15.46161498686859 40.727664994614365 H 0.0 **** 0.06
31356 C 87.52071044759586 90.37490808262112 26.981396254170818 C 0.0 **** -0.24
31357 H 86.69130415065158 89.96643161667981 26.404499512726773 H 0.0 **** 0.06
31358 H 87.91241522772626 91.259127878534 26.477813623305963 H 0.0 **** 0.06
31359 H 88.30772964022279 89.625546307539 27.06445294272112 H 0.0 **** 0.06
31360 H 87.17069404015123 90.64789050801849 27.976558943510383 H 0.0 **** 0.06
31361 C 123.61013848365053 108.07805093783978 45.33703718094661 C 0.0 **** -0.24
31362 H 123.89128253884658 107.36312035054021 44.56348304138315 H 0.0 **** 0.06
31363 H 123.38459940801945 107.54291249134586 46.26045678995585 H 0.0 **** 0.06
31364 H 122.73011933365751 108.63525935415915 45.01501418345984 H 0.0 **** 0.06
31365 H 124.43476210024801 108.7688517482547 45.51003945468928 H 0.0 **** 0.06
31366 C 74.41848496463626 42.96491006458041 49.90270094580467 C 0.0 **** -0.24
31367 H 73.71086979463001 43.78373774790765 49.769638004961564 H 0.0 **** 0.06
31368 H 73.98370986125877 42.043596890848704 49.51402705162944 H 0.0 **** 0.06
31369 H 74.63857197756104 42.84402942576284 50.96365679588217 H 0.0 **** 0.06
31370 H 75.33861775093692 43.18880389689846 49.3635860436068 H 0.0 **** 0.06
31371 C 42.704513501881024 15.364375630125267 57.67707245838483 C 0.0 **** -0.24
31372 H 41.62722594522633 15.524534024714058 57.61653643249531 H 0.0 **** 0.06
31373 H 43.14117148310112 15.453086920715862 56.681844911286305 H 0.0 **** 0.06
31374 H 42.90163349907574 14.367439647643607 58.0726822684972 H 0.0 **** 0.06
31375 H 43.1450108962412 16.11118777485018 58.33663087308585 H 0.0 **** 0.06
31376 C 110.45292121275475 123.92044413632486 25.195615681918753 C 0.0 **** -0.24
31377 H 110.58400553027406 123.22588961943477 24.365673727683543 H 0.0 **** 0.06
31378 H 110.89707389783024 124.88243925826156 24.938299672905885 H 0.0 **** 0.06
31379 H 110.94111067854385 123.5202914019124 26.083850169349716 H 0.0 **** 0.06
31380 H 109.38941449370566 124.05262737953808 25.39379423590981 H 0.0 **** 0.06
31381 C 84.19397728328678 86.5227158080136 86.40884371469767 C 0.0 **** -0.24
31382 H 83.50460179148413 86.01071223789106 87.07970468916562 H 0.0 **** 0.06
31383 H 83.83454528973189 87.53433102195712 86.22065232000772 H 0.0 **** 0.06
31384 H 84.25622021566485 85.97797435146052 85.46676767151409 H 0.0 **** 0.06
31385 H 85.1818118925303 86.56738723577885 86.86782952675618 H 0.0 **** 0.06
31386 C 53.05274292737886 79.97916429869133 6.059320956211764 C 0.0 **** -0.24
31387 H 52.209902973176014 80.13788180055644 6.732286254015662 H 0.0 **** 0.06
31388 H 53.58625934471539 80.91936988891939 5.918142303385309 H 0.0 **** 0.06
31389 H 52.68543900207803 79.62208757833548 5.097171408724364 H 0.0 **** 0.06
31390 H 53.72622207524955 79.23834509664846 6.489500475600892 H 0.0 **** 0.06
31391 C 96.76305552877601 6.5010302101429716 117.11389268439933 C 0.0 **** -0.24
31392 H 97.21876211346223 5.579540010577148 116.7512716166205 H 0.0 **** 0.06
31393 H 96.33785330383962 7.051032239455594 116.27391198003204 H 0.0 **** 0.06
31394 H 97.52143473528417 7.113260698607917 117.60246667635408 H 0.0 **** 0.06
31395 H 95.97482325539383 6.260419000905642 117.8271730144919 H 0.0 **** 0.06
31396 C 80.80650222403546 50.34758366908986 4.757728450049825 C 0.0 **** -0.24
31397 H 80.59769474880503 49.3606455883546 5.172280551875332 H 0.0 **** 0.06
31398 H 81.69875671350165 50.29712725396621 4.133753467988001 H 0.0 **** 0.06
31399 H 80.97078973548398 51.05518242102636 5.570568128324453 H 0.0 **** 0.06
31400 H 79.95953290847325 50.675789608806156 4.156738060606145 H 0.0 **** 0.06
31401 C 73.98426846168053 76.37552346902535 118.67740185167966 C 0.0 **** -0.24
31402 H 74.6232286894824 76.65860554153421 117.84118175423419 H 0.0 **** 0.06
31403 H 74.10950125851105 75.31334254357148 118.88701368736446 H 0.0 **** 0.06
31404 H 72.94274997164761 76.57658056019224 118.42278824145464 H 0.0 **** 0.06
31405 H 74.26042366287815 76.95555373328644 119.55780112940775 H 0.0 **** 0.06
31406 C 22.515754081554547 10.952888492611919 29.030339829901884 C 0.0 **** -0.24
31407 H 23.04415628967243 11.215064760704365 28.113495000088896 H 0.0 **** 0.06
31408 H 21.65619941165326 11.612035491321734 29.15505050034721 H 0.0 **** 0.06
31409 H 23.187534724523033 11.066034332612986 29.881294881454203 H 0.0 **** 0.06
31410 H 22.175799883370473 9.919631414544796 28.971241736518365 H 0.0 **** 0.06
31411 C 118.94878017455554 42.07755251229503 63.52670922961872 C 0.0 **** -0.24
31412 H 118.67249179664029 42.057615610949966 64.58164668792763 H 0.0 **** 0.06
31413 H 118.56484039888676 42.98959341725458 63.06866404260738 H 0.0 **** 0.06
31414 H 118.52308013394807 41.21005121451776 63.02343532293645 H 0.0 **** 0.06
31415 H 120.0347566949381 42.0548178323086 63.4358310719044 H 0.0 **** 0.06
31416 C 46.38562215214352 25.174375195203083 92.7458684844811 C 0.0 **** -0.24
31417 H 46.969908847935734 24.256902600045947 92.6759628506909 H 0.0 **** 0.06
31418 H 45.46667813718708 25.063647415287875 92.17025145851397 H 0.0 **** 0.06
31419 H 46.96650417034975 26.005970764611106 92.3464543903265 H 0.0 **** 0.06
31420 H 46.13987223992204 25.369912655371195 93.78952636703983 H 0.0 **** 0.06
31421 C 52.64718136556871 68.18764065546159 3.3750850046456264 C 0.0 **** -0.24
31422 H 53.11707909738277 67.28543027931393 2.9822029336499156 H 0.0 **** 0.06
31423 H 52.16380564039878 67.96193505725651 4.325599389979573 H 0.0 **** 0.06
31424 H 51.90266833313376 68.5474805615967 2.66422260757696 H 0.0 **** 0.06
31425 H 53.406050950363976 68.95527781987917 3.5263061658622235 H 0.0 **** 0.06
31426 C 7.103250376038659 122.0145977703371 39.709424632552725 C 0.0 **** -0.24
31427 H 7.822133352666924 122.76315118075144 40.04420041360008 H 0.0 **** 0.06
31428 H 6.4287402268963945 121.7673984655487 40.53001730946693 H 0.0 **** 0.06
31429 H 7.634552003127055 121.11760177941113 39.39223470887168 H 0.0 **** 0.06
31430 H 6.528201427725463 122.41209760130471 38.87271480571627 H 0.0 **** 0.06
31431 C 102.80190299764149 108.07328526554664 94.98031405135856 C 0.0 **** -0.24
31432 H 102.21208373931381 107.57838162757466 94.20875177915543 H 0.0 **** 0.06
31433 H 102.13442528197933 108.56486467861865 95.68791342567856 H 0.0 **** 0.06
31434 H 103.45325850285991 108.81643434027345 94.51790158757467 H 0.0 **** 0.06
31435 H 103.40878575461176 107.33495949508858 95.50388453737196 H 0.0 **** 0.06
31436 C 93.61125859196866 63.81077591625538 96.4159954899762 C 0.0 **** -0.24
31437 H 94.57559177160564 63.585990406998775 96.87422013544735 H 0.0 **** 0.06
31438 H 93.6203563409239 64.83162268005003 96.03417640034098 H 0.0 **** 0.06
31439 H 92.82276131132153 63.70695388980519 97.16156691337181 H 0.0 **** 0.06
31440 H 93.42927876950495 63.11599589100092 95.59597306533185 H 0.0 **** 0.06
31441 C 21.152872764623694 58.993938598349885 95.02769666087391 C 0.0 **** -0.24
31442 H 20.38401452874657 59.09812354705976 94.26163187452474 H 0.0 **** 0.06
31443 H 20.75326938442329 58.42239160787565 95.86681882747892 H 0.0 **** 0.06
31444 H 21.458884756343572 59.981552732255366 95.3723032091867 H 0.0 **** 0.06
31445 H 22.013257625699637 58.47126781225457 94.60909078644366 H 0.0 **** 0.06
31446 C 12.73808052161506 99.98093497646641 106.72978955514611 C 0.0 **** -0.24
31447 H 13.60470321467929 100.56250271260762 106.41652649477737 H 0.0 **** 0.06
31448 H 11.914612924895323 100.65493285649234 106.9678226027869 H 0.0 **** 0.06
31449 H 12.993137759437289 99.39326888063033 107.61119583396857 H 0.0 **** 0.06
31450 H 12.438584902430534 99.3121418933967 105.922014854407 H 0.0 **** 0.06
31451 C 122.85866436717986 45.18658428404801 47.442110747087014 C 0.0 **** -0.24
31452 H 122.93958380750654 44.34027392604995 46.759348288514715 H 0.0 **** 0.06
31453 H 122.35933952950124 46.01369846092529 46.936813223168045 H 0.0 **** 0.06
31454 H 123.85570752431857 45.49753471143363 47.754084275014236 H 0.0 **** 0.06
31455 H 122.27924643031636 44.89210654331981 48.31679205472844 H 0.0 **** 0.06
31456 C 46.733039348959494 36.209102757164544 97.91346935917608 C 0.0 **** -0.24
31457 H 46.33742693487255 35.196050863171195 97.99574610396044 H 0.0 **** 0.06
31458 H 47.34933377897218 36.430141629308736 98.78436352476464 H 0.0 **** 0.06
31459 H 45.90707798138672 36.918088375642725 97.86254898023972 H 0.0 **** 0.06
31460 H 47.33736589324897 36.29017361393642 97.00915374513623 H 0.0 **** 0.06
31461 C 95.27640803590543 97.95356593354417 90.6638974058188 C 0.0 **** -0.24
31462 H 94.57693822535421 97.14578644717335 90.88234663737475 H 0.0 **** 0.06
31463 H 94.75745105333421 98.74730051409834 90.126548569911 H 0.0 **** 0.06
31464 H 96.0919300665146 97.57164992563447 90.0501982461189 H 0.0 **** 0.06
31465 H 95.67735179001772 98.34820982482915 91.5971444134075 H 0.0 **** 0.06
31466 C 95.09056593082619 94.04822549318175 29.274190517952533 C 0.0 **** -0.24
31467 H 94.52049991953609 93.21027762747616 29.67639676735321 H 0.0 **** 0.06
31468 H 95.94736231693486 94.24681472151603 29.918195166780762 H 0.0 **** 0.06
31469 H 94.45496396248174 94.93231884903065 29.230869044268147 H 0.0 **** 0.06
31470 H 95.439377803155 93.80126558500375 28.271088414552366 H 0.0 **** 0.06
31471 C 48.31565670006343 100.0991656427824 91.20713413383706 C 0.0 **** -0.24
31472 H 48.22732818638414 99.19050245482174 91.80302339857889 H 0.0 **** 0.06
31473 H 49.36999706035968 100.33667301219947 91.06194661405877 H 0.0 **** 0.06
31474 H 47.824344176004544 100.92345616949733 91.72474583564642 H 0.0 **** 0.06
31475 H 47.84054596090192 99.94405177157273 90.23786469639182 H 0.0 **** 0.06
31476 C 99.60159887948944 3.114509184625078 72.47117303677237 C 0.0 **** -0.24
31477 H 99.53357800378461 2.3851503378067775 73.27845213980748 H 0.0 **** 0.06
31478 H 99.16965552486418 2.6930435421090664 71.5637853971225 H 0.0 **** 0.06
31479 H 100.64771253057742 3.3645924178683515 72.2952261722599 H 0.0 **** 0.06
31480 H 99.05433559403036 4.015007220950594 72.75079227014936 H 0.0 **** 0.06
31481 C 29.767817276565488 113.01661321193036 117.31903406316437 C 0.0 **** -0.24
31482 H 29.570864909371622 113.82844425853969 118.01989701388875 H 0.0 **** 0.06
31483 H 30.158005957585246 112.15515011226357 117.86257239593915 H 0.0 **** 0.06
31484 H 30.500018842819358 113.3433750344041 116.58138087431327 H 0.0 **** 0.06
31485 H 28.842290871916134 112.73882374602339 116.81442073596472 H 0.0 **** 0.06
31486 C 18.071183564347443 67.55233153105982 74.88821033438279 C 0.0 **** -0.24
31487 H 17.858620368554575 66.70444798495957 75.54004016932862 H 0.0 **** 0.06
31488 H 18.721029430639675 67.2298929517953 74.07383481089107 H 0.0 **** 0.06
31489 H 18.567798918688535 68.334591915342 75.46152049649277 H 0.0 **** 0.06
31490 H 17.13795071653529 67.93833207892632 74.47859012643022 H 0.0 **** 0.06
31491 C 113.65737769829553 87.44945228221066 95.30920938482495 C 0.0 **** -0.24
31492 H 114.6101179638431 87.15727816531881 95.74973739475274 H 0.0 **** 0.06
31493 H 113.13670273925266 88.127272271271 95.9861816115332 H 0.0 **** 0.06
31494 H 113.04687975223659 86.56151583140438 95.14287880462189 H 0.0 **** 0.06
31495 H 113.83581033784988 87.95174286084843 94.35803972839199 H 0.0 **** 0.06
31496 C 40.40822481970297 19.546086150551485 89.79474210895194 C 0.0 **** -0.24
31497 H 39.91364883398802 19.244066561619835 90.71803592974956 H 0.0 **** 0.06
31498 H 41.44717007200652 19.216228667952144 89.81561170997202 H 0.0 **** 0.06
31499 H 40.37284678620884 20.63100784888769 89.70274787639292 H 0.0 **** 0.06
31500 H 39.89903814420725 19.09224840115508 88.94465451209851 H 0.0 **** 0.06
31501 C 84.79079017736876 46.78197878155251 44.06018467331777 C 0.0 **** -0.24
31502 H 85.26426480017926 47.70559816413379 43.7263916909092 H 0.0 **** 0.06
31503 H 83.76041631529938 46.75337180752379 43.704836832793625 H 0.0 **** 0.06
31504 H 84.80123865913072 46.742297300853096 45.14912217492221 H 0.0 **** 0.06
31505 H 85.33760339160085 45.928774518298866 43.659227716860904 H 0.0 **** 0.06
31506 C 55.049188817215 67.35423264877326 75.02387472217322 C 0.0 **** -0.24
31507 H 54.009754501269924 67.62076542854678 74.83476300850293 H 0.0 **** 0.06
31508 H 55.657909717271195 67.63426537957454 74.16363563381475 H 0.0 **** 0.06
31509 H 55.124273881492115 66.27932638644779 75.18807113831082 H 0.0 **** 0.06
31510 H 55.40381847550083 67.88346346766966 75.90857030596811 H 0.0 **** 0.06
31511 C 112.43741568829938 10.65190844148482 77.97011103622884 C 0.0 **** -0.24
31512 H 112.94443268408338 9.780322748310113 78.38392965060285 H 0.0 **** 0.06
31513 H 112.07717823570505 11.28248421931741 78.78361268410671 H 0.0 **** 0.06
31514 H 111.59282376047642 10.325833907534076 77.36241569604624 H 0.0 **** 0.06
31515 H 113.1338761169722 11.217860222525019 77.35142924310384 H 0.0 **** 0.06
31516 C 20.71218615163923 103.2084237246778 32.67945426526697 C 0.0 **** -0.24
31517 H 20.9474150492523 104.26134069825326 32.83469896787469 H 0.0 **** 0.06
31518 H 20.462295063365616 102.74768358574434 33.63524539521654 H 0.0 **** 0.06
31519 H 21.574592187674227 102.70290365193725 32.246425487057365 H 0.0 **** 0.06
31520 H 19.862599573967486 103.12330534500867 32.00193510386927 H 0.0 **** 0.06
31521 C 100.63462499140431 93.34665215931444 111.14804986839958 C 0.0 **** -0.24
31522 H 101.23467048332881 93.6843127765158 110.30293482755194 H 0.0 **** 0.06
31523 H 101.29113609949783 92.95729586161848 111.9266509114193 H 0.0 **** 0.06
31524 H 99.95367686040814 92.56172769133485 110.81999668261881 H 0.0 **** 0.06
31525 H 100.06077523694438 94.18570155033035 111.54269570553123 H 0.0 **** 0.06
31526 C 94.9056759552175 85.32024646353193 12.792949231870551 C 0.0 **** -0.24
31527 H 94.08181193505551 85.21447120487997 12.087249316909947 H 0.0 **** 0.06
31528 H 95.0501129160051 86.37525584298237 13.026354235739717 H 0.0 **** 0.06
31529 H 95.81701371688521 84.91882491891661 12.349361638322733 H 0.0 **** 0.06
31530 H 94.67396750711899 84.77294812637054 13.706664960197656 H 0.0 **** 0.06
31531 C 39.657691307861455 8.701910063136552 38.97786599165022 C 0.0 **** -0.24
31532 H 38.7083276230336 9.237422717613782 39.007370950113 H 0.0 **** 0.06
31533 H 40.17064627368376 8.924913995321617 38.04216562738549 H 0.0 **** 0.06
31534 H 39.4718955147074 7.630439948413482 39.04513685812037 H 0.0 **** 0.06
31535 H 40.27805355272585 9.017617418588884 39.816942438097726 H 0.0 **** 0.06
31536 C 93.40874084447825 40.67284043315923 11.215620878912148 C 0.0 **** -0.24
31537 H 93.44303042990379 40.913263140149276 12.277720119120502 H 0.0 **** 0.06
31538 H 94.11059496879835 39.86518884098486 11.003655095066279 H 0.0 **** 0.06
31539 H 93.68260512233735 41.5536445720796 10.63510807310817 H 0.0 **** 0.06
31540 H 92.40132492287842 40.35844319781124 10.94677866848994 H 0.0 **** 0.06
31541 C 83.76303858775034 12.121610430046019 46.87774812400551 C 0.0 **** -0.24
31542 H 83.02280969473804 11.391793470740993 47.20506154819134 H 0.0 **** 0.06
31543 H 84.57565197770793 12.164788982506025 47.60420520940295 H 0.0 **** 0.06
31544 H 83.29540040799014 13.102878884152744 46.7970359187251 H 0.0 **** 0.06
31545 H 84.15918093083826 11.825589571212959 45.90619852584064 H 0.0 **** 0.06
31546 C 123.16461008142082 39.7979427874007 73.24674390704342 C 0.0 **** -0.24
31547 H 124.06034782445559 40.23375110843912 72.80492304205075 H 0.0 **** 0.06
31548 H 122.2983418388982 40.04865091536273 72.63313037680712 H 0.0 **** 0.06
31549 H 123.02541138477676 40.1945954606679 74.25236017570921 H 0.0 **** 0.06
31550 H 123.27444902107887 38.71394477605028 73.2954214168899 H 0.0 **** 0.06
31551 C 1.9360353468579312 52.85838065356461 92.99395501675538 C 0.0 **** -0.24
31552 H 0.900925563012482 52.53985485995797 93.12315966766926 H 0.0 **** 0.06
31553 H 2.5252867909295986 52.02824451504665 92.6047193290385 H 0.0 **** 0.06
31554 H 2.34115686151671 53.17238713917719 93.95581840716837 H 0.0 **** 0.06
31555 H 1.9747938097301354 53.692644746367606 92.293513075621 H 0.0 **** 0.06
31556 C 42.86653804816959 37.28212388571211 66.6680719998289 C 0.0 **** -0.24
31557 H 43.237758206281654 38.140286184657725 67.2289514958923 H 0.0 **** 0.06
31558 H 42.05641514934999 37.59902588772411 66.01179791037335 H 0.0 **** 0.06
31559 H 42.49817659616073 36.52675906047614 67.36339538961636 H 0.0 **** 0.06
31560 H 43.67637344196271 36.862300392246425 66.07066792950393 H 0.0 **** 0.06
31561 C 99.46774868390717 28.820939797323263 23.5178133202474 C 0.0 **** -0.24
31562 H 100.31682928818836 29.386382979531533 23.90268457020906 H 0.0 **** 0.06
31563 H 99.74392575901668 28.347407712031277 22.57508676634461 H 0.0 **** 0.06
31564 H 98.62728922921592 29.49572982344445 23.354078610215566 H 0.0 **** 0.06
31565 H 99.18443711026588 28.05540474471578 24.240059354706517 H 0.0 **** 0.06
31566 C 81.19485688578581 46.25851195251859 22.7191107597869 C 0.0 **** -0.24
31567 H 80.96564097747262 45.291600313087 22.27145615790974 H 0.0 **** 0.06
31568 H 80.56686435844904 47.026272184781035 22.265575320489887 H 0.0 **** 0.06
31569 H 82.24425511431627 46.499093841917016 22.546714533348705 H 0.0 **** 0.06
31570 H 81.00306503248686 46.21843249963257 23.790960182005563 H 0.0 **** 0.06
31571 C 53.54085282443458 55.31199045363735 90.97399429823044 C 0.0 **** -0.24
31572 H 52.67214872626738 54.826392382012045 91.41875088133308 H 0.0 **** 0.06
31573 H 53.30603385643916 55.612416761826594 89.95264234273816 H 0.0 **** 0.06
31574 H 54.38046427815014 54.61784871522991 90.96621656098644 H 0.0 **** 0.06
31575 H 53.80313714135812 56.193019385973074 91.56069330497394 H 0.0 **** 0.06
31576 C 28.17955221273111 62.626761383225045 124.10931650636809 C 0.0 **** -0.24
31577 H 28.2356473466872 61.97655153179565 124.98280504949622 H 0.0 **** 0.06
31578 H 27.218687700034685 62.48755775930667 123.61397173638068 H 0.0 **** 0.06
31579 H 28.984324599188376 62.376049986410976 123.41797366214118 H 0.0 **** 0.06
31580 H 28.280000283440828 63.66554919084459 124.42260988498532 H 0.0 **** 0.06
31581 C 17.12731866797114 117.09411309877345 38.818353797254815 C 0.0 **** -0.24
31582 H 17.98662817080762 117.60189680629333 39.257702924004235 H 0.0 **** 0.06
31583 H 16.472653493583067 117.8298590016116 38.349610514838815 H 0.0 **** 0.06
31584 H 16.579727252426466 116.56604284400154 39.59871213271501 H 0.0 **** 0.06
31585 H 17.469754593037266 116.38190045523787 38.069178003597216 H 0.0 **** 0.06
31586 C 56.23034763933583 63.611131295304475 22.264831668703607 C 0.0 **** -0.24
31587 H 57.09073806373789 63.591287190223966 22.93421815687327 H 0.0 **** 0.06
31588 H 56.56732913892091 63.79727465209416 21.24507541005039 H 0.0 **** 0.06
31589 H 55.549013644771605 64.40459085152077 22.57358834050882 H 0.0 **** 0.06
31590 H 55.714144919486955 62.65179154706722 22.308635087270318 H 0.0 **** 0.06
31591 C 55.49264889255056 119.06992042949219 43.556131368737724 C 0.0 **** -0.24
31592 H 54.59055220429042 119.63659406615162 43.32798843188419 H 0.0 **** 0.06
31593 H 56.05746496628764 118.9011857215738 42.639635829514226 H 0.0 **** 0.06
31594 H 55.2177085670631 118.11083780211118 43.99537851178388 H 0.0 **** 0.06
31595 H 56.10537810956994 119.63101356141257 44.26284149088609 H 0.0 **** 0.06
31596 C 77.24740102359036 40.912676916684205 67.33215185289713 C 0.0 **** -0.24
31597 H 76.91305856449745 41.92137805946665 67.57351838012916 H 0.0 **** 0.06
31598 H 77.8461588234446 40.93753704570952 66.42135670086877 H 0.0 **** 0.06
31599 H 76.38133056413074 40.26855696425173 67.18140660015584 H 0.0 **** 0.06
31600 H 77.85115973860295 40.52370140975137 68.1529242030182 H 0.0 **** 0.06
31601 C 100.43058874239608 56.77009903181852 109.8957581773497 C 0.0 **** -0.24
31602 H 100.68052484058546 57.142304171316155 110.88845344748 H 0.0 **** 0.06
31603 H 100.12254405807124 55.72647020889684 109.96489643485563 H 0.0 **** 0.06
31604 H 101.30429832777764 56.84928703032914 109.2478564882087 H 0.0 **** 0.06
31605 H 99.61554322390327 57.36246545570825 109.48053233124216 H 0.0 **** 0.06
31606 C 74.63076408174192 43.25218289574724 82.12611158004883 C 0.0 **** -0.24
31607 H 75.30424351728465 43.676269924928846 81.38086706528301 H 0.0 **** 0.06
31608 H 75.13188199644196 43.22525661868815 83.09434377503308 H 0.0 **** 0.06
31609 H 74.354942797084 42.23948134137305 81.83072212465791 H 0.0 **** 0.06
31610 H 73.73449804878334 43.86817410676181 82.19664322035963 H 0.0 **** 0.06
31611 C 49.894529885291654 100.46294855815717 121.55310994545735 C 0.0 **** -0.24
31612 H 49.318993836138155 101.06178322939132 120.84660796577384 H 0.0 **** 0.06
31613 H 50.676026302842274 101.07851493896634 121.99908092115979 H 0.0 **** 0.06
31614 H 50.34776424197359 99.6210855257453 121.03048683453974 H 0.0 **** 0.06
31615 H 49.23274321999366 100.09154035162251 122.33618792063396 H 0.0 **** 0.06
31616 C 44.623630855818845 119.45821701946231 85.81519021503709 C 0.0 **** -0.24
31617 H 44.64339191407501 118.61446332760426 85.12586309248485 H 0.0 **** 0.06
31618 H 45.290320447396454 119.25672468354 86.65439495787746 H 0.0 **** 0.06
31619 H 43.607300595703435 119.60121214653584 86.18408583143992 H 0.0 **** 0.06
31620 H 44.9530733118863 120.3581135888292 85.29693306155332 H 0.0 **** 0.06
31621 C 62.4117762610812 97.05712233445003 120.11326834591915 C 0.0 **** -0.24
31622 H 61.76469656998171 97.80038577860282 119.64776751977115 H 0.0 **** 0.06
31623 H 62.426448307201184 96.15441664147842 119.50163697973989 H 0.0 **** 0.06
31624 H 62.03192466718997 96.81770705830283 121.10674196194327 H 0.0 **** 0.06
31625 H 63.421833988103714 97.45683830136576 120.1975724799209 H 0.0 **** 0.06
31626 C 26.693912811775533 19.305012535501277 107.29973934270568 C 0.0 **** -0.24
31627 H 26.344423947569823 19.283002543500274 106.26749528052036 H 0.0 **** 0.06
31628 H 25.98591149670014 19.86552093884157 107.91048249080372 H 0.0 **** 0.06
31629 H 27.671281454773407 19.78563078208944 107.34288263787661 H 0.0 **** 0.06
31630 H 26.77304961590869 18.285013765799434 107.6775946781782 H 0.0 **** 0.06
31631 C 118.99529180064977 18.161248148195057 64.46678716454167 C 0.0 **** -0.24
31632 H 118.95799339826306 17.3647563956996 65.21044196519728 H 0.0 **** 0.06
31633 H 120.01946655566064 18.52194060109923 64.37248592804818 H 0.0 **** 0.06
31634 H 118.34837640920469 18.97985737576198 64.78020868415517 H 0.0 **** 0.06
31635 H 118.65512360116136 17.776709712737613 63.5054154988387 H 0.0 **** 0.06
31636 C 122.42711711101909 21.210284220340846 38.980060076174595 C 0.0 **** -0.24
31637 H 123.40124229524977 21.691427356679135 39.072500116484974 H 0.0 **** 0.06
31638 H 122.43697837665992 20.264158004524802 39.52111149716259 H 0.0 **** 0.06
31639 H 122.21213498023167 21.026518669682538 37.92668374617722 H 0.0 **** 0.06
31640 H 121.6601389242488 21.86143315666427 39.39888009375055 H 0.0 **** 0.06
31641 C 76.88177997034461 88.19876522200877 18.538631559770597 C 0.0 **** -0.24
31642 H 77.3221076448846 87.83288741378925 17.611874527537672 H 0.0 **** 0.06
31643 H 75.840539125976 87.87895864313398 18.59743683572751 H 0.0 **** 0.06
31644 H 76.9284140911657 89.28745381163696 18.557607946165994 H 0.0 **** 0.06
31645 H 77.43438112664097 87.7961865581999 19.38660502779062 H 0.0 **** 0.06
31646 C 108.92668265975449 21.788785542958237 89.77714922938205 C 0.0 **** -0.24
31647 H 109.99129347369957 21.671469481612064 89.57392894816624 H 0.0 **** 0.06
31648 H 108.39955222201112 21.9948058999434 88.8449980179744 H 0.0 **** 0.06
31649 H 108.77831012318623 22.617141803865593 90.47026771077324 H 0.0 **** 0.06
31650 H 108.53859427946533 20.870852186120374 90.21984836788675 H 0.0 **** 0.06
31651 C 18.194188835201658 2.3573842914892396 108.22633760453013 C 0.0 **** -0.24
31652 H 18.916305904355852 1.5418554747022313 108.26661660306394 H 0.0 **** 0.06
31653 H 17.354252405772286 2.0668099786083474 107.5934401420009 H 0.0 **** 0.06
31654 H 18.671623029692853 3.245120290917015 107.81266497925185 H 0.0 **** 0.06
31655 H 17.833581268038756 2.5729789485255594 109.232055670031 H 0.0 **** 0.06
31656 C 110.8629036048701 97.47682865439549 48.14634955810217 C 0.0 **** -0.24
31657 H 111.80609385606608 97.88151311533898 47.78092476366778 H 0.0 **** 0.06
31658 H 111.0075471940575 97.06464707783687 49.14578408420446 H 0.0 **** 0.06
31659 H 110.52138922978257 96.6890764083945 47.47377085259975 H 0.0 **** 0.06
31660 H 110.11680518586867 98.27043627311065 48.18441258761735 H 0.0 **** 0.06
31661 C 36.90482811243919 112.5899176813914 50.52682103677549 C 0.0 **** -0.24
31662 H 35.829594790102306 112.50158934994602 50.6891177762071 H 0.0 **** 0.06
31663 H 37.435697562383154 112.06691460345371 51.323117581110836 H 0.0 **** 0.06
31664 H 37.18714518558198 113.64218721040089 50.531243269476676 H 0.0 **** 0.06
31665 H 37.163633372806885 112.14745261514884 49.564883300636495 H 0.0 **** 0.06
31666 C 108.50700880955937 120.34006997795899 32.28531214285675 C 0.0 **** -0.24
31667 H 109.18632222960278 120.35001773916237 33.13844466250393 H 0.0 **** 0.06
31668 H 107.47763560953176 120.29397410432836 32.642422426563385 H 0.0 **** 0.06
31669 H 108.71601409057912 119.46916287117493 31.664590565697097 H 0.0 **** 0.06
31670 H 108.6490161928937 121.24758407714259 31.699089717055728 H 0.0 **** 0.06
31671 C 42.48619578107392 30.577286439852884 95.57738186407408 C 0.0 **** -0.24
31672 H 43.55771800921643 30.78113905435569 95.58084890545132 H 0.0 **** 0.06
31673 H 42.05650597219751 30.908789675756594 94.63223586206135 H 0.0 **** 0.06
31674 H 42.01227603357852 31.11248742353777 96.40119602591551 H 0.0 **** 0.06
31675 H 42.32090055431529 29.506193742715368 95.69661132950091 H 0.0 **** 0.06
31676 C 61.15393962536989 3.678778177785759 43.596843801462185 C 0.0 **** -0.24
31677 H 61.49830174741331 4.478856339761975 44.25158293477534 H 0.0 **** 0.06
31678 H 60.58553641501253 4.106111121158733 42.770216254360804 H 0.0 **** 0.06
31679 H 60.51885486492124 2.9959519092578404 44.16040151079355 H 0.0 **** 0.06
31680 H 62.01370785865295 3.1350817214393203 43.204281069011756 H 0.0 **** 0.06
31681 C 42.430120091520166 52.44221534011018 81.40285429606634 C 0.0 **** -0.24
31682 H 43.019941739476906 53.05087924526103 80.71665793822075 H 0.0 **** 0.06
31683 H 41.566661470845304 52.03544436300223 80.87556467844162 H 0.0 **** 0.06
31684 H 42.09038478974496 53.06063368342453 82.23445423298404 H 0.0 **** 0.06
31685 H 43.04337826687224 51.625930042534236 81.78307314076424 H 0.0 **** 0.06
31686 C 13.674937023142718 94.63650370564672 12.264624233711913 C 0.0 **** -0.24
31687 H 14.53055971888989 95.2605294329384 12.5205057311656 H 0.0 **** 0.06
31688 H 13.407316254684531 94.79704335521552 11.219403229507975 H 0.0 **** 0.06
31689 H 12.829947463913527 94.90016782893447 12.900679719835694 H 0.0 **** 0.06
31690 H 13.93089115885033 93.58816299438773 12.416949283601753 H 0.0 **** 0.06
31691 C 112.37739150839187 38.06150456823923 105.94269938849553 C 0.0 **** -0.24
31692 H 112.88844583759575 38.860356568160796 105.40556937785078 H 0.0 **** 0.06
31693 H 111.85037345766524 37.42467125624853 105.23116365948587 H 0.0 **** 0.06
31694 H 111.66171097909609 38.49440868279578 106.64115202050934 H 0.0 **** 0.06
31695 H 113.10731455016487 37.46658914121639 106.49148503225157 H 0.0 **** 0.06
31696 C 91.36526056362456 46.9750351527 38.72626695689779 C 0.0 **** -0.24
31697 H 91.01688068715194 46.17820752506901 38.06915440913184 H 0.0 **** 0.06
31698 H 92.2649610648962 47.42565429422547 38.30722148778216 H 0.0 **** 0.06
31699 H 91.59030732999904 46.562085545211005 39.71020056534522 H 0.0 **** 0.06
31700 H 90.58808428641927 47.73419824108106 38.82057605872846 H 0.0 **** 0.06
31701 C 11.777763232907773 98.38738434513579 18.96072177431853 C 0.0 **** -0.24
31702 H 12.775365353974877 98.15357747540652 18.59030848076611 H 0.0 **** 0.06
31703 H 11.057761196538394 98.29992395051313 18.145258340929587 H 0.0 **** 0.06
31704 H 11.76486397600749 99.4055034389707 19.3492623838425 H 0.0 **** 0.06
31705 H 11.511783818917053 97.69100791250256 19.756023306538765 H 0.0 **** 0.06
31706 C 109.33725755544742 36.896645645385334 91.01921596091404 C 0.0 **** -0.24
31707 H 109.08016698716409 36.60218825132789 92.03667602683117 H 0.0 **** 0.06
31708 H 109.85003262287465 36.073108450483105 90.52087872529825 H 0.0 **** 0.06
31709 H 109.99121686919237 37.768407139616286 91.04753270364142 H 0.0 **** 0.06
31710 H 108.4276137425585 37.142878740114156 90.47177638788543 H 0.0 **** 0.06
31711 C 52.514419846444355 34.85920567955131 66.47703092932045 C 0.0 **** -0.24
31712 H 52.25738243051319 35.54908163676461 65.67362965810719 H 0.0 **** 0.06
31713 H 53.570148402345524 34.59860482066367 66.40748185802312 H 0.0 **** 0.06
31714 H 51.909291996741956 33.957095867348244 66.38879340126931 H 0.0 **** 0.06
31715 H 52.32048523948089 35.3344666843104 67.43962438355453 H 0.0 **** 0.06
31716 C 31.930497812555615 86.34792362336137 46.18082307347217 C 0.0 **** -0.24
31717 H 31.820816296820595 86.28703861579987 47.26332372387276 H 0.0 **** 0.06
31718 H 31.556806015956795 85.42993630876882 45.72567418160375 H 0.0 **** 0.06
31719 H 32.98370884378443 86.47577765688985 45.928706763549584 H 0.0 **** 0.06
31720 H 31.36138093039486 87.19804062355777 45.804770201583665 H 0.0 **** 0.06
31721 C 54.89306477738789 73.3791930786477 5.938771592415634 C 0.0 **** -0.24
31722 H 55.33280209196634 73.10763527335631 6.899144036150005 H 0.0 **** 0.06
31723 H 55.117413614965585 72.60436163524811 5.2047820747716 H 0.0 **** 0.06
31724 H 55.309683882993525 74.32922980103412 5.604328102126118 H 0.0 **** 0.06
31725 H 53.81247679012429 73.47392912663508 6.048372777787506 H 0.0 **** 0.06
31726 C 123.22377281275882 86.85206634368612 5.964368269742746 C 0.0 **** -0.24
31727 H 122.82491357795165 86.67707374375186 4.965007161030446 H 0.0 **** 0.06
31728 H 123.27991788463919 85.9060580279525 6.502450678380267 H 0.0 **** 0.06
31729 H 122.56911224174793 87.53838453846953 6.501240289424956 H 0.0 **** 0.06
31730 H 124.22070900431964 87.28664637379381 5.886367159253371 H 0.0 **** 0.06
31731 C 43.70439618167603 63.542076658878 110.00103437867153 C 0.0 **** -0.24
31732 H 44.44712111517552 63.99300374387467 109.34177856777012 H 0.0 **** 0.06
31733 H 42.951599224272655 63.029817601153624 109.40133183507214 H 0.0 **** 0.06
31734 H 43.22726196755005 64.31967917024842 110.59660714967595 H 0.0 **** 0.06
31735 H 44.19307139802552 62.8254435750832 110.66058439502422 H 0.0 **** 0.06
31736 C 54.83946358669448 93.48350635801106 100.42742805043015 C 0.0 **** -0.24
31737 H 54.245606119536035 94.39421936477898 100.34342870713688 H 0.0 **** 0.06
31738 H 55.12376233452045 93.3307916859133 101.46874605123374 H 0.0 **** 0.06
31739 H 55.737130847120056 93.57784564222356 99.81550456451507 H 0.0 **** 0.06
31740 H 54.25243152910906 92.63335510266361 100.08228050656298 H 0.0 **** 0.06
31741 C 61.61201921505024 10.754722933666798 16.931182272624227 C 0.0 **** -0.24
31742 H 61.302415562187576 9.750723959124315 17.222141663286152 H 0.0 **** 0.06
31743 H 60.75388961530392 11.298525442551608 16.536587400763636 H 0.0 **** 0.06
31744 H 62.38515709252184 10.688636654930221 16.16538650520843 H 0.0 **** 0.06
31745 H 62.00642309664573 11.278863425863676 17.801225365879787 H 0.0 **** 0.06
31746 C 72.64562267337925 68.61582736523829 75.20403297520517 C 0.0 **** -0.24
31747 H 72.08329396525733 68.36245615401002 74.30607134592725 H 0.0 **** 0.06
31748 H 72.12363936108522 69.40260332772661 75.74916208183546 H 0.0 **** 0.06
31749 H 73.6390271033788 68.9656420303336 74.92432775352677 H 0.0 **** 0.06
31750 H 72.736175727155 67.7333808762026 75.83709697113676 H 0.0 **** 0.06
31751 C 67.01618289744839 84.03295326471068 28.516315977851775 C 0.0 **** -0.24
31752 H 67.25374732685246 84.8885733478652 27.88318471923671 H 0.0 **** 0.06
31753 H 65.9423720856935 84.00833398103224 28.70429466614948 H 0.0 **** 0.06
31754 H 67.54890271551027 84.12399820326549 29.463936802284252 H 0.0 **** 0.06
31755 H 67.31992740835237 83.11486821649254 28.014973044616198 H 0.0 **** 0.06
31756 C 32.565272539029166 98.49481721408341 66.6186854975075 C 0.0 **** -0.24
31757 H 32.01626645155043 99.41231742129139 66.40773675514131 H 0.0 **** 0.06
31758 H 33.09337456299138 98.59701745815897 67.56724657788641 H 0.0 **** 0.06
31759 H 33.28361506320699 98.30900040683093 65.82005488659007 H 0.0 **** 0.06
31760 H 31.865693156424207 97.66033197275351 66.67993786876593 H 0.0 **** 0.06
31761 C 122.78581928163379 49.66544930781188 120.94467826458208 C 0.0 **** -0.24
31762 H 122.43211412486097 50.681558672910626 121.12556011921944 H 0.0 **** 0.06
31763 H 123.7938531564617 49.55511535596315 121.34503293167592 H 0.0 **** 0.06
31764 H 122.79657153803014 49.471273336240785 119.87258603915927 H 0.0 **** 0.06
31765 H 122.11938295316094 48.95703744832895 121.43558854578339 H 0.0 **** 0.06
31766 C 87.9622236586413 25.305512628324202 59.82862523057295 C 0.0 **** -0.24
31767 H 87.76343092092893 24.271251833108224 59.549892925656565 H 0.0 **** 0.06
31768 H 87.72056048558997 25.96003424651289 58.99081791243029 H 0.0 **** 0.06
31769 H 89.01578973021957 25.416619411775258 60.08526413703103 H 0.0 **** 0.06
31770 H 87.3481686912369 25.57401184399695 60.68822651808904 H 0.0 **** 0.06
31771 C 78.7896583050236 97.77532876849531 65.24374023067858 C 0.0 **** -0.24
31772 H 79.36861229649345 96.86579436829166 65.0790792593001 H 0.0 **** 0.06
31773 H 78.24487133393922 98.02857148656466 64.33452465564594 H 0.0 **** 0.06
31774 H 79.46262032557573 98.59162954516728 65.50352628399062 H 0.0 **** 0.06
31775 H 78.08322966875043 97.61243134157479 66.05823993272864 H 0.0 **** 0.06
31776 C 29.91702414894297 75.50952046462214 32.72371208988196 C 0.0 **** -0.24
31777 H 29.997718676940167 76.02557327982007 31.766959458711675 H 0.0 **** 0.06
31778 H 28.87523663762667 75.49919971680518 33.04434736178423 H 0.0 **** 0.06
31779 H 30.52220188226805 76.02844697046584 33.467685173350965 H 0.0 **** 0.06
31780 H 30.27505780443707 74.48604568196635 32.61552271951006 H 0.0 **** 0.06
31781 C 31.91146399125921 73.87088245946882 1.400628369167336 C 0.0 **** -0.24
31782 H 30.846184817911677 73.64125549408071 1.4126460517160524 H 0.0 **** 0.06
31783 H 32.40325973656948 73.35265409364419 2.2258605736672195 H 0.0 **** 0.06
31784 H 32.05384999907619 74.94603708482681 1.5105532289503572 H 0.0 **** 0.06
31785 H 32.343803247913286 73.54140515010208 0.4558441736221397 H 0.0 **** 0.06
31786 C 82.24018333179987 63.72252303327545 89.9065757495533 C 0.0 **** -0.24
31787 H 81.63763604725449 62.861995501730235 89.61833493578851 H 0.0 **** 0.06
31788 H 82.83687197441321 64.04992936554918 89.05462122276893 H 0.0 **** 0.06
31789 H 82.90186027617428 63.44380906145743 90.72739845372071 H 0.0 **** 0.06
31790 H 81.58733847438029 64.53408211921979 90.22566048959473 H 0.0 **** 0.06
31791 C 92.10150722631057 76.77572740300337 62.61207775075803 C 0.0 **** -0.24
31792 H 91.73951882404478 75.77549328966992 62.37414325771556 H 0.0 **** 0.06
31793 H 92.81280192674939 77.09570985649847 61.84949996485162 H 0.0 **** 0.06
31794 H 92.5934061339727 76.76280399961743 63.584681553274095 H 0.0 **** 0.06
31795 H 91.26089570905684 77.47002323720389 62.6393605167662 H 0.0 **** 0.06
31796 C 82.99031517470812 43.044906959607886 41.691390823986566 C 0.0 **** -0.24
31797 H 83.09891108176208 44.12749769212155 41.75869575607699 H 0.0 **** 0.06
31798 H 82.90280226312437 42.75214700731587 40.645724176772184 H 0.0 **** 0.06
31799 H 82.09533565245619 42.73555032327636 42.2321910549392 H 0.0 **** 0.06
31800 H 83.86455390896106 42.564113566359 42.13191566039936 H 0.0 **** 0.06
31801 C 64.66940998346752 92.56444641168281 33.59359560699005 C 0.0 **** -0.24
31802 H 63.829406535806044 92.9278877138525 34.184691437251644 H 0.0 **** 0.06
31803 H 64.70090249818611 93.09544469891907 32.64265149633334 H 0.0 **** 0.06
31804 H 64.55002007946115 91.49604140042752 33.41100989487194 H 0.0 **** 0.06
31805 H 65.59813173675852 92.7376506745878 34.13881298162468 H 0.0 **** 0.06
31806 C 108.29978796102905 100.04713566610985 80.24447921369804 C 0.0 **** -0.24
31807 H 107.51687575527605 99.86171687830205 79.5082991256065 H 0.0 **** 0.06
31808 H 109.09898593090696 100.63023447162924 79.78515124712541 H 0.0 **** 0.06
31809 H 108.69924806934726 99.09678834475311 80.59779673197531 H 0.0 **** 0.06
31810 H 107.88240155089025 100.60092143575812 81.08523517990145 H 0.0 **** 0.06
31811 C 92.22690429053114 103.29198481978412 26.769528271261237 C 0.0 **** -0.24
31812 H 93.00336720417289 102.91204148360043 26.10523230138375 H 0.0 **** 0.06
31813 H 91.32898992594187 102.6828654409322 26.663886891294993 H 0.0 **** 0.06
31814 H 91.99849770897112 104.32467779670247 26.509350908235007 H 0.0 **** 0.06
31815 H 92.57788541033142 103.24649204798429 27.80076995062757 H 0.0 **** 0.06
31816 C 104.28321441597562 74.94382202439795 12.150591909696534 C 0.0 **** -0.24
31817 H 104.57770852133231 74.61655297497897 11.153869353225247 H 0.0 **** 0.06
31818 H 104.61545861860012 75.96985510926633 12.309747886194401 H 0.0 **** 0.06
31819 H 104.74055528792324 74.29368932524311 12.89571971812682 H 0.0 **** 0.06
31820 H 103.1981399326717 74.8951558389544 12.243121292231184 H 0.0 **** 0.06
31821 C 85.20386312754138 17.792505062730015 18.847938386487726 C 0.0 **** -0.24
31822 H 85.27105991101419 17.682431753379205 19.930348278094016 H 0.0 **** 0.06
31823 H 85.04016604849247 18.84102380518209 18.599582980728428 H 0.0 **** 0.06
31824 H 84.37125372594264 17.19582818134279 18.474292789754656 H 0.0 **** 0.06
31825 H 86.13188302999694 17.449877032200334 18.38954790401732 H 0.0 **** 0.06
31826 C 8.761280061251682 70.02310609868024 33.42612638792417 C 0.0 **** -0.24
31827 H 9.456719148874157 69.47203682134435 32.792551713805125 H 0.0 **** 0.06
31828 H 9.297222017922394 70.81536796169476 33.94961957070771 H 0.0 **** 0.06
31829 H 8.31541416031203 69.34400086276517 34.152193418660914 H 0.0 **** 0.06
31830 H 7.977123439167343 70.46128285937593 32.80767405006844 H 0.0 **** 0.06
31831 C 77.88870600141652 32.02303833107254 112.3556736808508 C 0.0 **** -0.24
31832 H 77.73948321859271 32.85495140059726 111.66731482290032 H 0.0 **** 0.06
31833 H 78.2395449941337 32.404309915963694 113.31517445739077 H 0.0 **** 0.06
31834 H 78.63154137873144 31.33921636654574 111.94305289330993 H 0.0 **** 0.06
31835 H 76.94647624670895 31.494558276484895 112.49661894226305 H 0.0 **** 0.06
31836 C 91.7093844742844 82.51009119731603 0.9957994873123521 C 0.0 **** -0.24
31837 H 91.42184499574205 81.4873877958437 1.2372170562881681 H 0.0 **** 0.06
31838 H 91.64939599529609 83.12587048017156 1.893891927602052 H 0.0 **** 0.06
31839 H 91.0344564557885 82.90714949097274 0.23709425689939678 H 0.0 **** 0.06
31840 H 92.73090862868631 82.5201785011886 0.6147071164310862 H 0.0 **** 0.06
31841 C 34.07965874885069 71.10760608077237 83.8518673631452 C 0.0 **** -0.24
31842 H 33.434867830438236 71.82961555663474 83.35060524922389 H 0.0 **** 0.06
31843 H 34.10875511776778 70.18446899818616 83.27186813366205 H 0.0 **** 0.06
31844 H 33.68761400402092 70.89905733608146 84.84711910294465 H 0.0 **** 0.06
31845 H 35.086619176614406 71.51644025270534 83.93571261411228 H 0.0 **** 0.06
31846 C 84.55259414581059 123.5992253559293 112.88619158295153 C 0.0 **** -0.24
31847 H 85.43672765794022 124.17674535083776 112.6165116114452 H 0.0 **** 0.06
31848 H 84.28578328403003 123.80604220739782 113.92248905413652 H 0.0 **** 0.06
31849 H 84.76478813645002 122.53540402724198 112.77116246326456 H 0.0 **** 0.06
31850 H 83.72468022755822 123.87686591580164 112.23442557521703 H 0.0 **** 0.06
31851 C 2.0466152353305915 93.8948792713673 79.14384331195339 C 0.0 **** -0.24
31852 H 2.6321729078985356 94.81381957660258 79.14461346722015 H 0.0 **** 0.06
31853 H 2.214666393053079 93.3564723299595 80.07739489780093 H 0.0 **** 0.06
31854 H 2.351338569592997 93.26948393743541 78.30454474246173 H 0.0 **** 0.06
31855 H 0.9887727844724452 94.13805110354495 79.0505242342332 H 0.0 **** 0.06
31856 C 70.49525738170473 29.659069723181148 70.83114157474695 C 0.0 **** -0.24
31857 H 70.83202043390759 29.92640463500919 71.83347010159137 H 0.0 **** 0.06
31858 H 69.63675211758624 28.992095621681216 70.90282775669695 H 0.0 **** 0.06
31859 H 71.30288423662086 29.15813528623812 70.29832340128716 H 0.0 **** 0.06
31860 H 70.20938666075267 30.562851616499017 70.29125174306112 H 0.0 **** 0.06
31861 C 48.08126661482663 10.46944043984345 79.34214118897441 C 0.0 **** -0.24
31862 H 48.27635499843012 11.49404070739605 79.65814039927272 H 0.0 **** 0.06
31863 H 48.834745204290755 9.808006564952944 79.76950045056685 H 0.0 **** 0.06
31864 H 48.12028798109134 10.410125825778614 78.25427730166535 H 0.0 **** 0.06
31865 H 47.092643536329604 10.164301835180336 79.68716962868245 H 0.0 **** 0.06
31866 C 54.88920616620473 18.173599364003266 79.69382282938307 C 0.0 **** -0.24
31867 H 55.092322966631315 17.839990592488164 78.67616499685386 H 0.0 **** 0.06
31868 H 54.027230983857464 18.84046611273473 79.69154009231153 H 0.0 **** 0.06
31869 H 55.758647503803985 18.70442789610371 80.08120573990698 H 0.0 **** 0.06
31870 H 54.6796214697313 17.310106808807504 80.3244697385602 H 0.0 **** 0.06
31871 C 120.32210629295898 61.73042256240588 54.92747032273101 C 0.0 **** -0.24
31872 H 120.74763913483136 62.57838827383482 55.465020983103926 H 0.0 **** 0.06
31873 H 119.88405058823923 61.03150232073435 55.64074127960839 H 0.0 **** 0.06
31874 H 121.10646281421855 61.22874487560078 54.36138374558847 H 0.0 **** 0.06
31875 H 119.54951997119267 62.08476356048159 54.243965661992405 H 0.0 **** 0.06
31876 C 123.56459182973813 82.4590401617139 95.63707951074392 C 0.0 **** -0.24
31877 H 124.4349227631698 81.82412212092898 95.80238481987077 H 0.0 **** 0.06
31878 H 123.25171659604831 82.89930529393389 96.5846962551713 H 0.0 **** 0.06
31879 H 122.75153689169119 81.86145683235621 95.2266340694443 H 0.0 **** 0.06
31880 H 123.82287080962942 83.25231980459395 94.93545775154021 H 0.0 **** 0.06
31881 C 96.90927015736492 94.89279309378179 53.74582459505524 C 0.0 **** -0.24
31882 H 97.62071771414253 94.86831133301601 54.572124057016936 H 0.0 **** 0.06
31883 H 97.44086101694114 95.09736274256164 52.81635047617192 H 0.0 **** 0.06
31884 H 96.17179347575413 95.67500817921362 53.92437818662023 H 0.0 **** 0.06
31885 H 96.40635704005709 93.92818424543381 53.672606372844825 H 0.0 **** 0.06
31886 C 107.86294126982 54.523167648629254 103.65650825986121 C 0.0 **** -0.24
31887 H 107.89287277303575 53.5946982092122 104.22679092317127 H 0.0 **** 0.06
31888 H 108.77857099771077 54.62038050839476 103.07279206811181 H 0.0 **** 0.06
31889 H 107.77707786959982 55.365933955432155 104.34138201420927 H 0.0 **** 0.06
31890 H 107.00407225994263 54.50991526435317 102.9861978436706 H 0.0 **** 0.06
31891 C 98.94874005678783 64.80909586931719 69.25086294049805 C 0.0 **** -0.24
31892 H 98.39906945367328 63.92430844932093 68.92755003873714 H 0.0 **** 0.06
31893 H 99.98701349959971 64.54069989955386 69.44570278116828 H 0.0 **** 0.06
31894 H 98.4976657249568 65.20351281561426 70.16170922683597 H 0.0 **** 0.06
31895 H 98.90941454976205 65.56654154332105 68.468326527697 H 0.0 **** 0.06
31896 C 14.001753254749303 59.74656602630418 62.4485534134963 C 0.0 **** -0.24
31897 H 13.499163767020718 58.911862934397305 62.936420425449 H 0.0 **** 0.06
31898 H 14.792795061711786 60.123767495460896 63.09743373408921 H 0.0 **** 0.06
31899 H 13.2818576902298 60.54077338704741 62.25370554658227 H 0.0 **** 0.06
31900 H 14.43436108799807 59.409589756632016 61.50589853093794 H 0.0 **** 0.06
31901 C 46.845295639245805 12.45396913355718 58.07372012604816 C 0.0 **** -0.24
31902 H 45.97182119563256 11.8324586062798 58.267587861919054 H 0.0 **** 0.06
31903 H 46.740541643116195 12.934438612521745 57.10096250668319 H 0.0 **** 0.06
31904 H 47.74127402402376 11.833242720844368 58.07690774283506 H 0.0 **** 0.06
31905 H 46.92894356242867 13.215912203335265 58.84929896967016 H 0.0 **** 0.06
31906 C 67.34374161947576 117.36145425942374 110.30387451769727 C 0.0 **** -0.24
31907 H 66.61859961697644 118.10837351199285 110.6253062465667 H 0.0 **** 0.06
31908 H 66.89383796387673 116.36992868366085 110.36295488596994 H 0.0 **** 0.06
31909 H 68.21905804209018 117.40212726808988 110.9532131406561 H 0.0 **** 0.06
31910 H 67.64343618005046 117.56475353274749 109.27638961904847 H 0.0 **** 0.06
31911 C 63.22779842011511 90.68378090165255 110.05076697867732 C 0.0 **** -0.24
31912 H 62.18703211475258 90.41228930186594 109.8732830863525 H 0.0 **** 0.06
31913 H 63.775460326522875 90.65616295072101 109.10847964516671 H 0.0 **** 0.06
31914 H 63.672687511151594 89.97863338643113 110.7518406612311 H 0.0 **** 0.06
31915 H 63.27392231568524 91.6900813717471 110.4687929741468 H 0.0 **** 0.06
31916 C 106.747274030168 61.43268569760153 4.8138656216179925 C 0.0 **** -0.24
31917 H 105.92006999819154 61.73290936427776 5.458491905018633 H 0.0 **** 0.06
31918 H 107.65652848987844 61.343867273391425 5.409033969720923 H 0.0 **** 0.06
31919 H 106.89225349745385 62.182957090171726 4.037585121595242 H 0.0 **** 0.06
31920 H 106.51870056380989 60.47176349287031 4.353188533016663 H 0.0 **** 0.06
31921 C 100.6554328538379 3.011010504045373 78.99492005793724 C 0.0 **** -0.24
31922 H 100.67426038791999 3.9289838321112143 78.4061957747038 H 0.0 **** 0.06
31923 H 100.79620026371465 3.253690241280907 80.04844548075471 H 0.0 **** 0.06
31924 H 101.45671062595268 2.350260273541039 78.66301975816245 H 0.0 **** 0.06
31925 H 99.69494465529806 2.513797471624855 78.86074737220338 H 0.0 **** 0.06
31926 C 106.27092969088058 108.63662664637158 105.30079047391727 C 0.0 **** -0.24
31927 H 107.13670696105594 108.5566140922959 104.64270805717018 H 0.0 **** 0.06
31928 H 105.80659911297457 109.61446332812302 105.17193295668237 H 0.0 **** 0.06
31929 H 106.59125343579042 108.5206042891789 106.33643193986444 H 0.0 **** 0.06
31930 H 105.55185805668907 107.85596291293682 105.05273841614216 H 0.0 **** 0.06
31931 C 48.31060118907658 9.781602572995595 108.22704899742155 C 0.0 **** -0.24
31932 H 49.35319109613724 9.476916599321324 108.32507716559752 H 0.0 **** 0.06
31933 H 48.061859045523875 9.886653421347777 107.17037712529499 H 0.0 **** 0.06
31934 H 48.16248510681115 10.735077931062047 108.73274752830574 H 0.0 **** 0.06
31935 H 47.66773288169236 9.025705392972345 108.67874085138487 H 0.0 **** 0.06
31936 C 117.96818654401463 19.623365779061928 4.641181716855954 C 0.0 **** -0.24
31937 H 117.12189591613142 19.76181372315699 5.31410002686593 H 0.0 **** 0.06
31938 H 118.06524542924757 20.49783043471868 3.9960305987049196 H 0.0 **** 0.06
31939 H 117.80388307438622 18.73683166266568 4.028542878631185 H 0.0 **** 0.06
31940 H 118.87999830857046 19.499066815225476 5.224128287540935 H 0.0 **** 0.06
31941 C 94.88207159240294 61.45050197846126 71.81197816947349 C 0.0 **** -0.24
31942 H 95.18473051332637 61.516796195702796 72.85736010921028 H 0.0 **** 0.06
31943 H 95.44477022060066 60.65563356235927 71.32186472169235 H 0.0 **** 0.06
31944 H 95.08393536486646 62.39963780018769 71.31504563850706 H 0.0 **** 0.06
31945 H 93.8167790725061 61.2305002859668 71.75679925659233 H 0.0 **** 0.06
31946 C 115.91549166703209 96.9566046218607 9.041570516318131 C 0.0 **** -0.24
31947 H 115.53531926096457 97.72316500905077 9.716617779230376 H 0.0 **** 0.06
31948 H 116.04047244918289 96.02148493327036 9.587637075902478 H 0.0 **** 0.06
31949 H 116.87686168871545 97.27320701239879 8.637814052753981 H 0.0 **** 0.06
31950 H 115.20880368643938 96.80931221840898 8.224633692719976 H 0.0 **** 0.06
31951 C 48.770768348955045 65.09035893927908 115.4494564449895 C 0.0 **** -0.24
31952 H 47.72319798007746 65.38626756878867 115.39216665456536 H 0.0 **** 0.06
31953 H 48.836657353130704 64.0270592855041 115.6803941032046 H 0.0 **** 0.06
31954 H 49.26745251382863 65.66437236172692 116.23244252405755 H 0.0 **** 0.06
31955 H 49.255405479647095 65.28569273485785 114.49261304483957 H 0.0 **** 0.06
31956 C 100.54588933995048 104.58036637950957 44.295216318435536 C 0.0 **** -0.24
31957 H 100.42669028084842 103.5047665947406 44.1608792363979 H 0.0 **** 0.06
31958 H 99.5903571894621 105.07659616358382 44.124289318648266 H 0.0 **** 0.06
31959 H 101.2836586667864 104.95540046079424 43.58564490995869 H 0.0 **** 0.06
31960 H 100.88398927848276 104.78338386915334 45.3117742760779 H 0.0 **** 0.06
31961 C 23.399898598709683 67.61874503812531 98.98818064521396 C 0.0 **** -0.24
31962 H 22.374404831230038 67.98084559389963 98.91546596872297 H 0.0 **** 0.06
31963 H 23.39479172639483 66.57521663005596 99.30323476068072 H 0.0 **** 0.06
31964 H 23.945450255025378 68.21736027288833 99.71801002643706 H 0.0 **** 0.06
31965 H 23.88455728383815 67.70245262431614 98.01579560308873 H 0.0 **** 0.06
31966 C 87.24574385369426 88.82403521453551 49.99006076567622 C 0.0 **** -0.24
31967 H 86.42385774780657 89.24827164866996 50.56782407994211 H 0.0 **** 0.06
31968 H 88.13281630887865 88.75078845434868 50.6189916546609 H 0.0 **** 0.06
31969 H 87.45737478876644 89.46691432667959 49.13524117135344 H 0.0 **** 0.06
31970 H 86.96639115044634 87.83164498664648 49.637564868278076 H 0.0 **** 0.06
31971 C 101.13742119973604 103.09399311943842 116.05692227394974 C 0.0 **** -0.24
31972 H 101.70271288351834 103.99251714048194 115.80732727870223 H 0.0 **** 0.06
31973 H 101.67918087795134 102.52140552481941 116.80969687548335 H 0.0 **** 0.06
31974 H 101.00673657146443 102.48724651764394 115.16163141365337 H 0.0 **** 0.06
31975 H 100.16084030839795 103.37755782731506 116.45020278832425 H 0.0 **** 0.06
31976 C 4.964809896829877 95.4515617808965 15.432620186516594 C 0.0 **** -0.24
31977 H 3.947907330115669 95.22913597880176 15.756963638497762 H 0.0 **** 0.06
31978 H 5.577730365455125 94.5542491923961 15.517227037389258 H 0.0 **** 0.06
31979 H 5.382153609658957 96.2376267835366 16.06186317588404 H 0.0 **** 0.06
31980 H 4.949364452467847 95.78587393219891 14.394926797897096 H 0.0 **** 0.06
31981 C 55.66597058178962 9.918748621543301 68.8133495556176 C 0.0 **** -0.24
31982 H 56.16508834853795 8.952303083045138 68.74827157270204 H 0.0 **** 0.06
31983 H 56.274582462711976 10.675830173367757 68.31836083276647 H 0.0 **** 0.06
31984 H 55.531062299929715 10.188273861187895 69.86105639957333 H 0.0 **** 0.06
31985 H 54.69314921597879 9.858587368572358 68.32570941742853 H 0.0 **** 0.06
31986 C 17.05937099674665 51.31346304570914 11.285837296918771 C 0.0 **** -0.24
31987 H 16.87291841805569 52.385983586439195 11.234848972727207 H 0.0 **** 0.06
31988 H 18.132803422367743 51.13585929383051 11.368351395135164 H 0.0 **** 0.06
31989 H 16.68017947189483 50.83603914617511 10.382875581902965 H 0.0 **** 0.06
31990 H 16.55417013698107 50.89804057106559 12.157411120899496 H 0.0 **** 0.06
31991 C 90.10314816150355 32.67587877356502 25.536807170255464 C 0.0 **** -0.24
31992 H 89.37525466728027 32.476149273287334 26.323721359066802 H 0.0 **** 0.06
31993 H 90.26392806433915 33.75163697973662 25.45517444906894 H 0.0 **** 0.06
31994 H 89.72674303898845 32.29215056397703 24.588475181701007 H 0.0 **** 0.06
31995 H 91.04545575656743 32.18447828384154 25.780708185265837 H 0.0 **** 0.06
31996 C 103.38061876478184 93.98628147578398 13.115902931688765 C 0.0 **** -0.24
31997 H 102.94471759868941 93.1671287718296 12.544980285840992 H 0.0 **** 0.06
31998 H 104.36982317422769 94.21842865458467 12.72048661100655 H 0.0 **** 0.06
31999 H 103.46787121299127 93.69282017690642 14.162388585810902 H 0.0 **** 0.06
32000 H 102.74182531341941 94.86524877522083 13.037665803752475 H 0.0 **** 0.06
32001 C 67.51472999101645 110.67677493726381 17.25089231978299 C 0.0 **** -0.24
32002 H 67.07464798121953 110.54672323572487 18.239087155672678 H 0.0 **** 0.06
32003 H 68.4664418895378 110.14757493561785 17.204400165408742 H 0.0 **** 0.06
32004 H 67.67922792302431 111.7384439732059 17.063670373329927 H 0.0 **** 0.06
32005 H 66.83831280075475 110.27595100465874 16.495797172723456 H 0.0 **** 0.06
32006 C 86.67129334614228 114.85692157722013 117.83654422275563 C 0.0 **** -0.24
32007 H 87.39956206701225 114.0893289226828 117.57768555007672 H 0.0 **** 0.06
32008 H 86.75263524901602 115.68606032894013 117.13340045826092 H 0.0 **** 0.06
32009 H 86.86531636455614 115.21642397215058 118.84688217622758 H 0.0 **** 0.06
32010 H 85.66690017132582 114.43518740456972 117.78649022839949 H 0.0 **** 0.06
32011 C 86.44244713204708 101.43261042126167 123.73278682637317 C 0.0 **** -0.24
32012 H 86.26734185450945 102.04806774812354 124.61411197906455 H 0.0 **** 0.06
32013 H 86.47822322955885 102.06781647355044 122.84728973981709 H 0.0 **** 0.06
32014 H 85.6329879993855 100.70892829107405 123.62851849119363 H 0.0 **** 0.06
32015 H 87.38970160031504 100.90588754752812 123.84046504265712 H 0.0 **** 0.06
32016 C 17.886531630625484 34.118360975349475 5.366975013800726 C 0.0 **** -0.24
32017 H 17.71181940526037 34.64634492079384 4.428852758221154 H 0.0 **** 0.06
32018 H 17.726269539421764 33.05044672956734 5.2185939673388475 H 0.0 **** 0.06
32019 H 17.19677997819076 34.48798006890327 6.125197307346781 H 0.0 **** 0.06
32020 H 18.912482449410618 34.290406359990115 5.694554140330524 H 0.0 **** 0.06
32021 C 117.08594019717808 59.31724315317058 111.50437213874459 C 0.0 **** -0.24
32022 H 116.71121780488502 59.627110567659145 110.52896914128604 H 0.0 **** 0.06
32023 H 116.62241991115297 59.92483430621226 112.28178043380571 H 0.0 **** 0.06
32024 H 118.16758561619889 59.44938882137083 111.5362380259978 H 0.0 **** 0.06
32025 H 116.84352110986117 58.267460116178 111.67052353151213 H 0.0 **** 0.06
32026 C 47.408784624539976 15.023656005441069 52.15275693888489 C 0.0 **** -0.24
32027 H 46.677506225278194 15.206755151534765 52.94017444198502 H 0.0 **** 0.06
32028 H 48.14934971301864 14.305177972628996 52.50641278837985 H 0.0 **** 0.06
32029 H 47.90401452793418 15.958904066300818 51.89243580375759 H 0.0 **** 0.06
32030 H 46.90326250042969 14.622694617368097 51.27461172309422 H 0.0 **** 0.06
32031 C 84.17694201186634 118.98231800092304 8.407658434492049 C 0.0 **** -0.24
32032 H 83.21959162545568 118.82796154374317 7.910911038650454 H 0.0 **** 0.06
32033 H 84.02004247868649 119.52884960068761 9.33783018053569 H 0.0 **** 0.06
32034 H 84.83617307553243 119.55602805104478 7.755516625349401 H 0.0 **** 0.06
32035 H 84.63334338515233 118.01738933223167 8.625958918104914 H 0.0 **** 0.06
32036 C 3.456923532141346 19.428049946434214 36.504236527967436 C 0.0 **** -0.24
32037 H 4.336807763541714 18.9843796300093 36.041664445974135 H 0.0 **** 0.06
32038 H 3.3784412696129493 20.47464984051726 36.20804408148973 H 0.0 **** 0.06
32039 H 3.5453831997521377 19.36340454446338 37.58895980811616 H 0.0 **** 0.06
32040 H 2.5655163434766592 18.89050190847331 36.180741483316325 H 0.0 **** 0.06
32041 C 87.08311233886383 97.6132296064456 76.5354138232581 C 0.0 **** -0.24
32042 H 87.35563652830245 96.99634981749648 77.39231501485665 H 0.0 **** 0.06
32043 H 85.9996685019388 97.60025019243756 76.40972457935862 H 0.0 **** 0.06
32044 H 87.55758809127781 97.21718949254603 75.6376423108745 H 0.0 **** 0.06
32045 H 87.41785524326883 98.63631588454575 76.70306613090851 H 0.0 **** 0.06
32046 C 29.360885440998743 44.61772191043576 16.78393670667205 C 0.0 **** -0.24
32047 H 29.831100244510367 44.10585417661483 15.944249757202613 H 0.0 **** 0.06
32048 H 29.101667381894572 45.63472397072216 16.490254063906207 H 0.0 **** 0.06
32049 H 30.053580956790682 44.64664929874908 17.62511792589325 H 0.0 **** 0.06
32050 H 28.457703707901004 44.08131484419701 17.07661396653336 H 0.0 **** 0.06
32051 C 7.900540751869656 18.64442231552688 35.30768676007454 C 0.0 **** -0.24
32052 H 7.057925607598754 19.28027114008313 35.03993951939876 H 0.0 **** 0.06
32053 H 8.040081082506717 18.660704836448517 36.38872010694012 H 0.0 **** 0.06
32054 H 8.803365065886048 19.010843915833817 34.818331863659424 H 0.0 **** 0.06
32055 H 7.701505187919544 17.622305239463003 34.98286784491186 H 0.0 **** 0.06
32056 C 113.1658808345916 47.4126007863269 53.836686530177815 C 0.0 **** -0.24
32057 H 112.76802630576626 47.78551932760406 52.89364402500638 H 0.0 **** 0.06
32058 H 112.45325998654704 47.61410536775989 54.63736887288724 H 0.0 **** 0.06
32059 H 114.1092986431616 47.9127978533707 54.05622800090626 H 0.0 **** 0.06
32060 H 113.33455335027716 46.33815280745212 53.7618209760746 H 0.0 **** 0.06
32061 C 25.05548852289661 95.55400526297892 109.55940675705877 C 0.0 **** -0.24
32062 H 25.000282595785222 95.53120784804621 110.64710396345852 H 0.0 **** 0.06
32063 H 25.907903959664836 96.15934266961362 109.25176535515111 H 0.0 **** 0.06
32064 H 24.13870412522104 95.98578870513788 109.15786704836142 H 0.0 **** 0.06
32065 H 25.174700093396908 94.53851862317612 109.18017298476005 H 0.0 **** 0.06
32066 C 45.664132300015126 92.60228228313615 1.1692581974545249 C 0.0 **** -0.24
32067 H 45.07219608892427 92.8963338745767 2.0358324151205096 H 0.0 **** 0.06
32068 H 46.69343818954712 92.41792556012815 1.4788042432859072 H 0.0 **** 0.06
32069 H 45.64471025053194 93.4018660583309 0.4284010566031924 H 0.0 **** 0.06
32070 H 45.2467179409328 91.69419587838098 0.73453756624437 H 0.0 **** 0.06
32071 C 18.096280090693 34.2160321600692 10.766785228371557 C 0.0 **** -0.24
32072 H 17.576180040226376 33.84502256528351 9.884002984258668 H 0.0 **** 0.06
32073 H 18.110357062320645 35.30567473624631 10.74896423321049 H 0.0 **** 0.06
32074 H 19.11945066589857 33.839436681992076 10.77003480007324 H 0.0 **** 0.06
32075 H 17.580271492025588 33.87318092132951 11.663936772378676 H 0.0 **** 0.06
32076 C 64.5300765476756 99.10514248185481 89.91152779051573 C 0.0 **** -0.24
32077 H 63.49906906471489 99.31168539029849 90.19934947878835 H 0.0 **** 0.06
32078 H 64.77859748006261 98.0754914998524 90.16740446339085 H 0.0 **** 0.06
32079 H 65.19790796593531 99.78358132486224 90.44157551789229 H 0.0 **** 0.06
32080 H 64.64309632894961 99.24990094642669 88.83663371298388 H 0.0 **** 0.06
32081 C 70.90514433164545 84.12130460407903 116.95630360572989 C 0.0 **** -0.24
32082 H 70.50816189515446 84.07473876515915 117.97017255826296 H 0.0 **** 0.06
32083 H 70.0850571689827 84.25968013519183 116.25126885438567 H 0.0 **** 0.06
32084 H 71.42849175363082 83.19259069082831 116.72829995313242 H 0.0 **** 0.06
32085 H 71.59849893459987 84.95807301395041 116.87639311047548 H 0.0 **** 0.06
32086 C 23.48364742966089 9.263084837929643 57.55324600487944 C 0.0 **** -0.24
32087 H 22.62311604877908 9.86035672919077 57.85531016745625 H 0.0 **** 0.06
32088 H 24.319604258340803 9.46750364546303 58.22175390102274 H 0.0 **** 0.06
32089 H 23.762397125233008 9.521081792504567 56.53122598427586 H 0.0 **** 0.06
32090 H 23.227210280694806 8.204984392013717 57.60409020176388 H 0.0 **** 0.06
32091 C 14.892123163393194 69.67643219994712 100.00989259213029 C 0.0 **** -0.24
32092 H 14.442420878956682 68.687227596885 99.9240333050331 H 0.0 **** 0.06
32093 H 15.903497070795993 69.58212519378236 100.40493398287245 H 0.0 **** 0.06
32094 H 14.294439840028474 70.29018089786399 100.68392292873725 H 0.0 **** 0.06
32095 H 14.927872702260288 70.14526050937269 99.02643964351353 H 0.0 **** 0.06
32096 C 97.6099745098739 27.427479379904725 91.26309962571374 C 0.0 **** -0.24
32097 H 96.95679494924768 28.279913076549278 91.0779593205899 H 0.0 **** 0.06
32098 H 97.00440913731508 26.539495454321113 91.4437230488226 H 0.0 **** 0.06
32099 H 98.23093425076503 27.629306623423822 92.13617436300275 H 0.0 **** 0.06
32100 H 98.24750759248117 27.26288888329359 90.39484551164166 H 0.0 **** 0.06
32101 C 109.90701034895594 45.30141771428549 117.99293622322256 C 0.0 **** -0.24
32102 H 108.83008882953713 45.307240168254566 117.82048645139119 H 0.0 **** 0.06
32103 H 110.12661663423295 45.809705632784585 118.93251391956744 H 0.0 **** 0.06
32104 H 110.40827192740531 45.81784916171995 117.17452246534675 H 0.0 **** 0.06
32105 H 110.26120811094073 44.2719435022172 118.0435769673069 H 0.0 **** 0.06
32106 C 53.35489175925636 109.59948135915398 39.77098902585607 C 0.0 **** -0.24
32107 H 52.39905117029346 110.07529902204568 39.98951135939037 H 0.0 **** 0.06
32108 H 53.28534973426608 108.53206899126343 39.97884573985224 H 0.0 **** 0.06
32109 H 54.13146282751663 110.04232601580654 40.394745148682695 H 0.0 **** 0.06
32110 H 53.6034487052481 109.74940070531952 38.72010017861172 H 0.0 **** 0.06
32111 C 5.485882478105012 81.90081788711578 118.68359267554455 C 0.0 **** -0.24
32112 H 5.777693323715923 80.98074827462528 118.17707115250319 H 0.0 **** 0.06
32113 H 5.394341495674652 81.7131507310055 119.7529162644433 H 0.0 **** 0.06
32114 H 4.529034704228877 82.24296312169082 118.29100560189194 H 0.0 **** 0.06
32115 H 6.244010933148445 82.66522711407403 118.51109767350718 H 0.0 **** 0.06
32116 C 28.679704355330657 61.19944739297716 50.35197629982923 C 0.0 **** -0.24
32117 H 27.941536930995603 60.78036461669001 49.667376967323094 H 0.0 **** 0.06
32118 H 28.975681747608796 60.439320477310844 51.07581345592001 H 0.0 **** 0.06
32119 H 28.246376413560384 62.051180584422696 50.87581420141072 H 0.0 **** 0.06
32120 H 29.553380085621917 61.525579291508166 49.78800698302234 H 0.0 **** 0.06
32121 C 104.48592725996826 7.211643093608082 95.13453328731381 C 0.0 **** -0.24
32122 H 104.21008349948755 8.180356805612057 94.71587858431477 H 0.0 **** 0.06
32123 H 105.57213764007088 7.120552534094351 95.15154049978608 H 0.0 **** 0.06
32124 H 104.06402871431612 6.4166787969878705 94.51959337792408 H 0.0 **** 0.06
32125 H 104.09747776835673 7.130702310194419 96.14937477673053 H 0.0 **** 0.06
32126 C 39.4088236183504 77.82622853855204 62.175130705035215 C 0.0 **** -0.24
32127 H 38.629600924515316 77.77986579963832 61.41456829450634 H 0.0 **** 0.06
32128 H 40.36742129128593 77.56238829707823 61.72897993788668 H 0.0 **** 0.06
32129 H 39.17558188824417 77.12520353000102 62.97708580745342 H 0.0 **** 0.06
32130 H 39.462063257597606 78.83668901701253 62.58002186722746 H 0.0 **** 0.06
32131 C 74.40817837417855 85.66795613247689 61.18448622709448 C 0.0 **** -0.24
32132 H 74.1096197608608 85.10255972601652 62.06690014971997 H 0.0 **** 0.06
32133 H 73.54352047126416 85.8160833789089 60.53768353110328 H 0.0 **** 0.06
32134 H 75.17792835037528 85.11623331277178 60.643176972270226 H 0.0 **** 0.06
32135 H 74.80386626116704 86.6366743294248 61.49117973629528 H 0.0 **** 0.06
32136 C 28.248435273992015 19.045449539846985 33.330118721573456 C 0.0 **** -0.24
32137 H 29.01931158134073 19.272074101453782 32.59419434693922 H 0.0 **** 0.06
32138 H 28.670521811796903 19.120218498786073 34.333137841627604 H 0.0 **** 0.06
32139 H 27.87703575253198 18.03388846325049 33.16626425082825 H 0.0 **** 0.06
32140 H 27.427661463478927 19.755011000350706 33.226975249533155 H 0.0 **** 0.06
32141 C 69.53440970678245 30.90419737885898 96.2394895156676 C 0.0 **** -0.24
32142 H 70.51761415657822 31.26470405340507 95.94065253724344 H 0.0 **** 0.06
32143 H 68.83311050619282 31.739225539284007 96.26457330418421 H 0.0 **** 0.06
32144 H 69.59820860415306 30.45332166889156 97.23024001258406 H 0.0 **** 0.06
32145 H 69.18683577887302 30.15922335299632 95.52367754546168 H 0.0 **** 0.06
32146 C 74.81688474447579 39.57088196088415 21.591430069291007 C 0.0 **** -0.24
32147 H 74.49591624419841 40.05178349389024 20.667933673820336 H 0.0 **** 0.06
32148 H 75.90477619281916 39.61246895884335 21.663322689204968 H 0.0 **** 0.06
32149 H 74.49229006720455 38.53047296212162 21.591110209184734 H 0.0 **** 0.06
32150 H 74.37620007516229 40.08923441390618 22.443688553888045 H 0.0 **** 0.06
32151 C 21.257965400002988 66.93388734694739 50.89129554171125 C 0.0 **** -0.24
32152 H 20.484427328803342 67.36197407093438 51.52909357594952 H 0.0 **** 0.06
32153 H 22.090424685280304 66.59446297869418 51.50725034248056 H 0.0 **** 0.06
32154 H 21.609609180563595 67.69091227070615 50.18947669960746 H 0.0 **** 0.06
32155 H 20.845007704605635 66.09025850941356 50.33834253475396 H 0.0 **** 0.06
32156 C 69.91740096278744 123.37656961021852 1.4576717903948975 C 0.0 **** -0.24
32157 H 69.44340304101856 124.31471817614558 1.1690614216437893 H 0.0 **** 0.06
32158 H 69.91750945649754 123.28929714010529 2.5444492484740238 H 0.0 **** 0.06
32159 H 70.94383146606157 123.35989007119979 1.0910821988880741 H 0.0 **** 0.06
32160 H 69.36356471614033 122.54256114363992 1.0255583258947922 H 0.0 **** 0.06
32161 C 104.98282209925944 119.58582720224271 85.53057714400305 C 0.0 **** -0.24
32162 H 104.14350272418638 120.03886701942639 86.05919579043983 H 0.0 **** 0.06
32163 H 104.98424271464215 118.5099868888811 85.70568941902394 H 0.0 **** 0.06
32164 H 105.91579127151118 120.01466768967691 85.89571005566967 H 0.0 **** 0.06
32165 H 104.88717397513942 119.7804058894416 84.46284626876493 H 0.0 **** 0.06
32166 C 0.26257342516418625 37.81393912975072 2.0080087770795867 C 0.0 **** -0.24
32167 H 1.1031834970433216 37.12108223611106 1.9538624958036852 H 0.0 **** 0.06
32168 H 0.13115885139009187 38.144524617270065 3.0381505796189803 H 0.0 **** 0.06
32169 H -0.6431695163177107 37.31263216418012 1.6681989682111418 H 0.0 **** 0.06
32170 H 0.46174212856535135 38.67607967286854 1.3720723185616421 H 0.0 **** 0.06
32171 C 51.59065599046876 30.409087781923176 102.80547942472903 C 0.0 **** -0.24
32172 H 52.07238637859672 31.386175187401307 102.82063471495337 H 0.0 **** 0.06
32173 H 51.206017591525935 30.208845431408548 101.8047096761773 H 0.0 **** 0.06
32174 H 50.76797482491068 30.397780401723395 103.51945804816835 H 0.0 **** 0.06
32175 H 52.31715086671895 29.642431058596543 103.07540420550808 H 0.0 **** 0.06
32176 C 117.22676425736523 114.46698364777262 96.60948486046297 C 0.0 **** -0.24
32177 H 117.95897410370239 113.66195397025835 96.55904089431166 H 0.0 **** 0.06
32178 H 117.73714519680559 115.41065091128883 96.80387914054384 H 0.0 **** 0.06
32179 H 116.51822784736623 114.26469892378752 97.41348848041775 H 0.0 **** 0.06
32180 H 116.6927098815869 114.53063078575573 95.66153092657848 H 0.0 **** 0.06
32181 C 89.79511518479947 105.4000655309614 108.47775122952955 C 0.0 **** -0.24
32182 H 89.81797652171366 104.98575659760786 107.47030886337768 H 0.0 **** 0.06
32183 H 90.69601501845848 105.10217463169766 109.01423441914174 H 0.0 **** 0.06
32184 H 88.91759938623031 105.02516714560392 109.004928573725 H 0.0 **** 0.06
32185 H 89.74744957263785 106.48744684911179 108.42248328977098 H 0.0 **** 0.06
32186 C 28.969008797281532 35.304008663508284 15.458354495724592 C 0.0 **** -0.24
32187 H 28.67382113088445 36.33188517625364 15.666618189707918 H 0.0 **** 0.06
32188 H 28.465245263386123 34.95670349619855 14.555983086424064 H 0.0 **** 0.06
32189 H 28.688554529990228 34.66789738666179 16.298769651612275 H 0.0 **** 0.06
32190 H 30.048348856062603 35.25786575382673 15.3135181213203 H 0.0 **** 0.06
32191 C 78.39365523290616 48.097981441605896 2.9891781122405803 C 0.0 **** -0.24
32192 H 77.49567129956564 48.64032623513833 3.283646515280367 H 0.0 **** 0.06
32193 H 79.27396676876364 48.61899486983043 3.3668940988509917 H 0.0 **** 0.06
32194 H 78.44315578577987 48.04215539776101 1.9015486363938976 H 0.0 **** 0.06
32195 H 78.36180247960658 47.089945871258124 3.4033017983288687 H 0.0 **** 0.06
32196 C 42.74738331565436 25.023122160660762 29.4776002958381 C 0.0 **** -0.24
32197 H 42.974864536407125 24.363733638881172 28.64008505916516 H 0.0 **** 0.06
32198 H 43.134705309377466 24.585636068059273 30.39921813596112 H 0.0 **** 0.06
32199 H 41.667618341115684 25.146705215769487 29.559138751993338 H 0.0 **** 0.06
32200 H 43.21339259236299 25.994202369478614 29.312073077291103 H 0.0 **** 0.06
32201 C 42.97176188948261 61.29483661548707 100.52787875416027 C 0.0 **** -0.24
32202 H 42.50167896848913 61.484953754346336 101.49283379790779 H 0.0 **** 0.06
32203 H 43.89271474940619 60.73072149885647 100.67714262097047 H 0.0 **** 0.06
32204 H 43.20009215718731 62.244028302955925 100.04192484901176 H 0.0 **** 0.06
32205 H 42.29033227226093 60.7198153773129 99.89962956413879 H 0.0 **** 0.06
32206 C 20.754236088796446 83.80008554511954 65.12360565643195 C 0.0 **** -0.24
32207 H 21.647748569059473 83.19637538636044 65.2822063896512 H 0.0 **** 0.06
32208 H 20.48468369887553 84.30200978708504 66.0532541441091 H 0.0 **** 0.06
32209 H 19.932683371054786 83.15689468615975 64.80591172065637 H 0.0 **** 0.06
32210 H 20.951828716195955 84.54506232087276 64.3530503713111 H 0.0 **** 0.06
32211 C 3.3123389010493582 96.4857866297767 55.329189317783886 C 0.0 **** -0.24
32212 H 2.800179769797026 95.57795532387544 55.64753823912966 H 0.0 **** 0.06
32213 H 2.9882082153955736 97.32155784165639 55.94984664991645 H 0.0 **** 0.06
32214 H 3.070042015052408 96.69183151118156 54.286579401249014 H 0.0 **** 0.06
32215 H 4.388802342496874 96.35077853090851 55.43212596049675 H 0.0 **** 0.06
32216 C 17.408018761108167 54.59650250850564 110.41105556395681 C 0.0 **** -0.24
32217 H 17.4876997199799 54.39854080864586 109.34296487324661 H 0.0 **** 0.06
32218 H 18.070942649805204 55.420199792364826 110.67791032962086 H 0.0 **** 0.06
32219 H 17.694282887864432 53.7041727645381 110.96813384217558 H 0.0 **** 0.06
32220 H 16.37996115323986 54.862687276536974 110.65563050724796 H 0.0 **** 0.06
32221 C 21.5375959837871 85.12297016531575 57.68336253934933 C 0.0 **** -0.24
32222 H 21.202097725958694 86.15899727201409 57.63648545985393 H 0.0 **** 0.06
32223 H 21.912299810129497 84.8175224070055 56.705605666337874 H 0.0 **** 0.06
32224 H 20.702051747345877 84.48340116427222 57.96812917741903 H 0.0 **** 0.06
32225 H 22.333193303081288 85.03186523251995 58.42202920269432 H 0.0 **** 0.06
32226 C 94.13704149870046 91.92501324449256 1.7960764798553015 C 0.0 **** -0.24
32227 H 94.7705294906931 91.06339706453372 2.0077159132887346 H 0.0 **** 0.06
32228 H 94.30948616127938 92.69590131580753 2.547972213292965 H 0.0 **** 0.06
32229 H 93.09068736645543 91.62021077533373 1.8210806202602896 H 0.0 **** 0.06
32230 H 94.37789023674947 92.31904098667758 0.8091369231210024 H 0.0 **** 0.06
32231 C 106.42564002836171 33.90296459843603 111.30615588502775 C 0.0 **** -0.24
32232 H 106.08160108693453 32.936462064262585 110.93815621768653 H 0.0 **** 0.06
32233 H 107.4980131279355 33.9963485241292 111.13536047337931 H 0.0 **** 0.06
32234 H 106.21863438294191 33.97937864834631 112.37330312424254 H 0.0 **** 0.06
32235 H 105.90265405344734 34.70002688029886 110.77603590838538 H 0.0 **** 0.06
32236 C 54.425959324274416 87.46089794429912 18.71009711294022 C 0.0 **** -0.24
32237 H 53.91311065892688 88.28623875202001 18.21446660704362 H 0.0 **** 0.06
32238 H 54.6143023585271 86.66604990760415 17.987966764140083 H 0.0 **** 0.06
32239 H 53.80327792319454 87.07884147371216 19.517998927555084 H 0.0 **** 0.06
32240 H 55.37401274305759 87.81443058493628 19.11689455278423 H 0.0 **** 0.06
32241 C 33.91301849016222 72.5741429862587 71.63008895832937 C 0.0 **** -0.24
32242 H 32.979798351418665 72.3166759684596 71.13039350192014 H 0.0 **** 0.06
32243 H 34.602876422851324 73.01099436899685 70.90801928681061 H 0.0 **** 0.06
32244 H 34.35627160301525 71.67398206074705 72.05753575820852 H 0.0 **** 0.06
32245 H 33.713483755874606 73.29304362538021 72.42381207688076 H 0.0 **** 0.06
32246 C 11.842368533339993 38.15758300337484 96.755501939834 C 0.0 **** -0.24
32247 H 11.137404694335373 37.83223894943495 97.5196059006459 H 0.0 **** 0.06
32248 H 12.822862283791835 38.31168650002576 97.20778604206305 H 0.0 **** 0.06
32249 H 11.494750515178396 39.09148837807683 96.31466168341103 H 0.0 **** 0.06
32250 H 11.91529867523758 37.39538140627235 95.98023064238009 H 0.0 **** 0.06
32251 C 62.25551125046705 62.55461161286112 44.482472790675956 C 0.0 **** -0.24
32252 H 61.518769324617665 61.95109570587502 45.01338204254952 H 0.0 **** 0.06
32253 H 62.496586660625255 63.43674072992215 45.07457793992663 H 0.0 **** 0.06
32254 H 61.84672745873165 62.861678030796014 43.52005619229257 H 0.0 **** 0.06
32255 H 63.158284915826215 61.96521974464352 44.3225145624987 H 0.0 **** 0.06
32256 C 40.459007562063476 68.58310559758937 11.432080866192507 C 0.0 **** -0.24
32257 H 39.84930079623987 67.77809669570675 11.842709713811928 H 0.0 **** 0.06
32258 H 39.8706378009812 69.15320021551466 10.713224935390372 H 0.0 **** 0.06
32259 H 41.331400647256885 68.16044258092197 10.934783240821304 H 0.0 **** 0.06
32260 H 40.78321320384259 69.2399096384315 12.239095019201017 H 0.0 **** 0.06
32261 C 44.36667358266618 9.280285698717648 115.69406442677645 C 0.0 **** -0.24
32262 H 43.468613434969086 9.370928117663453 116.30430747478363 H 0.0 **** 0.06
32263 H 44.78577739431506 8.280345117164018 115.81192284236722 H 0.0 **** 0.06
32264 H 45.09889223248632 10.02170768176589 116.01337146266623 H 0.0 **** 0.06
32265 H 44.11237376995132 9.44692226848241 114.64727812048285 H 0.0 **** 0.06
32266 C 66.1898568717495 76.94594797195792 31.69788903426405 C 0.0 **** -0.24
32267 H 65.4682125146125 76.92076957410129 32.51501584859025 H 0.0 **** 0.06
32268 H 66.31632755975966 77.97394634497728 31.357143881618953 H 0.0 **** 0.06
32269 H 65.82711590964476 76.33103805176953 30.87464274337819 H 0.0 **** 0.06
32270 H 67.14687897498067 76.55803609460432 32.047034828125106 H 0.0 **** 0.06
32271 C 35.17907322356702 113.2419454595396 97.97554582087112 C 0.0 **** -0.24
32272 H 35.70565993267981 114.13438843749394 97.6371958796536 H 0.0 **** 0.06
32273 H 34.50284959517629 112.90003386559978 97.1908293924069 H 0.0 **** 0.06
32274 H 34.60683379708208 113.4768899316177 98.87271180996804 H 0.0 **** 0.06
32275 H 35.90185155167494 112.45778817971599 98.19988157607203 H 0.0 **** 0.06
32276 C 73.23246797256287 66.05198029333724 56.70355527991546 C 0.0 **** -0.24
32277 H 72.52699707307868 66.64257951124206 57.28854426559607 H 0.0 **** 0.06
32278 H 74.06826852412686 65.75303212038096 57.335572760803686 H 0.0 **** 0.06
32279 H 73.6031751127787 66.65017681907577 55.87082250629814 H 0.0 **** 0.06
32280 H 72.73076605927527 65.1638497063779 56.318012788688975 H 0.0 **** 0.06
32281 C 20.769206550546336 11.645459589618099 89.61147120706245 C 0.0 **** -0.24
32282 H 19.812710839014482 11.907180352177562 89.15870204037041 H 0.0 **** 0.06
32283 H 20.672828015325557 11.661656313254866 90.69737524760936 H 0.0 **** 0.06
32284 H 21.52679128438693 12.366515514688103 89.30323027511395 H 0.0 **** 0.06
32285 H 21.064508994577274 10.647808716484349 89.28707809738496 H 0.0 **** 0.06
32286 C 108.82918212200912 39.06278442732675 119.50291094246987 C 0.0 **** -0.24
32287 H 108.02313510059116 39.6919581219598 119.8779752952039 H 0.0 **** 0.06
32288 H 109.70908708114428 39.677360106907884 119.3092287899259 H 0.0 **** 0.06
32289 H 108.51328788172623 38.579887793840356 118.57799235352724 H 0.0 **** 0.06
32290 H 109.07310023843343 38.302312123828216 120.24414200549049 H 0.0 **** 0.06
32291 C 37.348600512368236 95.00517463668254 111.16580457440656 C 0.0 **** -0.24
32292 H 36.945952832597015 94.08116850593956 111.57981445503131 H 0.0 **** 0.06
32293 H 37.734831958708725 95.62677186715484 111.97440764723953 H 0.0 **** 0.06
32294 H 36.56003985715002 95.54182342998055 110.63932778145326 H 0.0 **** 0.06
32295 H 38.15555043607824 94.77006075590825 110.47082755142984 H 0.0 **** 0.06
32296 C 80.23032845382167 106.52190537434603 36.06082501917683 C 0.0 **** -0.24
32297 H 79.28637643995754 107.06420820874177 35.996583282592155 H 0.0 **** 0.06
32298 H 80.74927869523495 106.58333272684908 35.10453531100177 H 0.0 **** 0.06
32299 H 80.03242996353507 105.4766164962275 36.300042712858385 H 0.0 **** 0.06
32300 H 80.84996613879858 106.96303072382895 36.841057824013035 H 0.0 **** 0.06
32301 C 109.9282109057211 9.1476387599198 8.333506074750261 C 0.0 **** -0.24
32302 H 110.44726975514916 8.660138670573247 9.158254665018063 H 0.0 **** 0.06
32303 H 110.65860051311593 9.541949446503395 7.626253031309616 H 0.0 **** 0.06
32304 H 109.31817326279878 9.963909262171 8.71963845926382 H 0.0 **** 0.06
32305 H 109.28801303340317 8.423209902654321 7.829126978385489 H 0.0 **** 0.06
32306 C 50.24611125341892 80.7388795327074 72.87816545255254 C 0.0 **** -0.24
32307 H 50.824141124242374 79.84930739157234 72.62876305195647 H 0.0 **** 0.06
32308 H 50.74575059613619 81.28364169582424 73.67897341846009 H 0.0 **** 0.06
32309 H 49.24917207343691 80.44276497668812 73.20563939987608 H 0.0 **** 0.06
32310 H 50.16471188431723 81.37710756861301 71.99875554690715 H 0.0 **** 0.06
32311 C 46.42849559297169 117.9537781113603 53.58271828907236 C 0.0 **** -0.24
32312 H 45.417633466787684 118.2224751042225 53.27735235891072 H 0.0 **** 0.06
32313 H 46.616240509707794 116.90820312757904 53.33809098450594 H 0.0 **** 0.06
32314 H 46.5358229399943 118.10031263468994 54.65676256122906 H 0.0 **** 0.06
32315 H 47.14592254835371 118.58459660772104 53.05690810524251 H 0.0 **** 0.06
32316 C 7.024671524354574 39.83251049512049 71.83387233077477 C 0.0 **** -0.24
32317 H 7.664132334637088 40.70383585759558 71.97365669341403 H 0.0 **** 0.06
32318 H 6.065527126662062 40.14844577357181 71.42302971363372 H 0.0 **** 0.06
32319 H 6.864930047194321 39.34181782208944 72.79378068457953 H 0.0 **** 0.06
32320 H 7.503996936061242 39.13685908508191 71.14540958741318 H 0.0 **** 0.06
32321 C 54.0142625183459 60.12244220975154 100.79265096985921 C 0.0 **** -0.24
32322 H 53.99781246387482 60.104719121166994 101.88252069184404 H 0.0 **** 0.06
32323 H 54.71249708958993 60.88773138361341 100.45279849755694 H 0.0 **** 0.06
32324 H 53.0159952801846 60.348901719961276 100.41771052850407 H 0.0 **** 0.06
32325 H 54.330747322694776 59.149034423651045 100.4183605207668 H 0.0 **** 0.06
32326 C 86.12636471841643 107.121519417933 28.450103696692338 C 0.0 **** -0.24
32327 H 87.0789214939515 107.44185660358272 28.026603460672305 H 0.0 **** 0.06
32328 H 86.30971606675382 106.47521244729637 29.308173194825784 H 0.0 **** 0.06
32329 H 85.56013167029778 106.57464007141601 27.69654162681477 H 0.0 **** 0.06
32330 H 85.55793245710089 107.99557856764415 28.767685286426044 H 0.0 **** 0.06
32331 C 37.151249317653196 57.75017397459092 60.315233873021725 C 0.0 **** -0.24
32332 H 37.795678866205265 57.933422549986375 61.17571646310472 H 0.0 **** 0.06
32333 H 36.11427275155626 57.68779863409608 60.64503171813391 H 0.0 **** 0.06
32334 H 37.4388437879081 56.81252449466686 59.83935826525223 H 0.0 **** 0.06
32335 H 37.257554302961125 58.56711557085541 59.601898499310295 H 0.0 **** 0.06
32336 C 99.00499268177188 99.51252424095699 88.542885964981 C 0.0 **** -0.24
32337 H 98.40852975400017 99.27636449083735 89.42462873015327 H 0.0 **** 0.06
32338 H 99.63700593380301 98.65925025342747 88.29437737089286 H 0.0 **** 0.06
32339 H 99.62944633367536 100.38035709016688 88.74937412790858 H 0.0 **** 0.06
32340 H 98.34315326573395 99.73140104604315 87.70495563573553 H 0.0 **** 0.06
32341 C 108.0901215966282 51.957184764504234 88.24034360174795 C 0.0 **** -0.24
32342 H 108.71082766624144 52.076314323447264 87.35129640090588 H 0.0 **** 0.06
32343 H 108.45720567752113 52.61475321096975 89.02912100250649 H 0.0 **** 0.06
32344 H 108.13780721969924 50.92250885477779 88.57904039873375 H 0.0 **** 0.06
32345 H 107.05987916620015 52.21562110754195 88.00073190720065 H 0.0 **** 0.06
32346 C 74.4873726017391 85.92426123732022 17.0593419493498 C 0.0 **** -0.24
32347 H 75.18204912763906 86.44079953615957 16.397966603822795 H 0.0 **** 0.06
32348 H 75.04269737299316 85.43951815837715 17.862779746737488 H 0.0 **** 0.06
32349 H 73.93750775475358 85.17290703746484 16.4917168300683 H 0.0 **** 0.06
32350 H 73.7865761185819 86.64311248144799 17.483873319677514 H 0.0 **** 0.06
32351 C 65.32871000928907 66.98407262329806 65.55605976686894 C 0.0 **** -0.24
32352 H 65.03709081338526 68.00068611320019 65.29445719875514 H 0.0 **** 0.06
32353 H 64.46620669941565 66.45113679581254 65.95574980790725 H 0.0 **** 0.06
32354 H 66.11807236620798 67.01435883756024 66.3072618256743 H 0.0 **** 0.06
32355 H 65.69377944055417 66.47035243490335 64.6658509886886 H 0.0 **** 0.06
32356 C 0.43772826488094374 35.034163577408236 23.794855792182176 C 0.0 **** -0.24
32357 H 0.8994305161037044 35.69724338194027 24.527657951309592 H 0.0 **** 0.06
32358 H -0.5315630378511376 35.43651878626898 23.500906224464707 H 0.0 **** 0.06
32359 H 0.30333516639379177 34.045377850812486 24.234527306943427 H 0.0 **** 0.06
32360 H 1.0815494658515483 34.95776383839588 22.917930416494684 H 0.0 **** 0.06
32361 C 0.07809359155784534 67.15379439931223 21.052326181335246 C 0.0 **** -0.24
32362 H 0.03230775483862658 66.96746451893443 19.9790691889456 H 0.0 **** 0.06
32363 H -0.39825494957563023 66.33035345724517 21.58415488814569 H 0.0 **** 0.06
32364 H -0.44078554730944575 68.08360107044098 21.281624255607397 H 0.0 **** 0.06
32365 H 1.1201417567476852 67.23278342261176 21.36304967931315 H 0.0 **** 0.06
32366 C 26.947949419140322 62.90795640707434 21.928079966224743 C 0.0 **** -0.24
32367 H 26.471550847314184 61.934940726017516 22.046800548043336 H 0.0 **** 0.06
32368 H 28.030043428453176 62.79289104109586 21.99082726694894 H 0.0 **** 0.06
32369 H 26.606495853849182 63.57831161861279 22.71705783597838 H 0.0 **** 0.06
32370 H 26.683221832399454 63.32580805486464 20.956311958319617 H 0.0 **** 0.06
32371 C 87.34444895415632 28.76321947679432 31.103088327196247 C 0.0 **** -0.24
32372 H 86.72228887597697 29.65072266409922 31.218256168554056 H 0.0 **** 0.06
32373 H 88.1438272953168 28.970501213304175 30.391716938907678 H 0.0 **** 0.06
32374 H 86.73541060609962 27.937941204811153 30.73548158051606 H 0.0 **** 0.06
32375 H 87.77672998305574 28.495244400384735 32.067563427838465 H 0.0 **** 0.06
32376 C 56.12989856212441 14.880886282720837 88.40148882663095 C 0.0 **** -0.24
32377 H 55.218650628762845 15.266685582396263 87.94412373487248 H 0.0 **** 0.06
32378 H 55.9517999558289 14.685423720517178 89.45836862909448 H 0.0 **** 0.06
32379 H 56.92681603220218 15.617449459246686 88.2968706455475 H 0.0 **** 0.06
32380 H 56.422402707882924 13.956316204062546 87.90366535635582 H 0.0 **** 0.06
32381 C 102.1266110844687 63.152633203007966 56.32034236757299 C 0.0 **** -0.24
32382 H 102.83932788950976 63.95233225918416 56.52422942807294 H 0.0 **** 0.06
32383 H 101.94476081316677 62.58739538519016 57.23514150721637 H 0.0 **** 0.06
32384 H 102.53515443167468 62.488341888760104 55.55811264605218 H 0.0 **** 0.06
32385 H 101.19078766978708 63.58231040925874 55.96494165471371 H 0.0 **** 0.06
32386 C 22.4222619447454 9.625190759770067 15.230108075539135 C 0.0 **** -0.24
32387 H 22.525672178743946 9.267388996149144 14.205479872697481 H 0.0 **** 0.06
32388 H 22.7998921545925 10.646041146920062 15.297677915376369 H 0.0 **** 0.06
32389 H 22.994065956546535 8.98096644005021 15.898526313403067 H 0.0 **** 0.06
32390 H 21.371539380701336 9.606359054334611 15.51752433672317 H 0.0 **** 0.06
32391 C 15.591905894302489 29.18436664336184 91.32335485569999 C 0.0 **** -0.24
32392 H 14.837909531016304 29.667127022207353 91.94471592946027 H 0.0 **** 0.06
32393 H 16.41527494911563 29.877393341956406 91.14672198101383 H 0.0 **** 0.06
32394 H 15.148430677734375 28.89740411641276 90.37009941950467 H 0.0 **** 0.06
32395 H 15.967002479905215 28.295475448287675 91.83196843935397 H 0.0 **** 0.06
32396 C 71.32017508912483 61.06586208339537 25.41977507763613 C 0.0 **** -0.24
32397 H 71.91699247500276 61.11202460877428 26.33068821031037 H 0.0 **** 0.06
32398 H 71.37277478829509 60.06022102865238 25.00178933057981 H 0.0 **** 0.06
32399 H 71.70838985951008 61.78148592831778 24.694509918452354 H 0.0 **** 0.06
32400 H 70.28315808863044 61.309406980853 25.651387565704965 H 0.0 **** 0.06
32401 C 80.0761037347566 107.9812333464636 62.62252354456396 C 0.0 **** -0.24
32402 H 80.767615947205 107.4148146838055 61.99858887088274 H 0.0 **** 0.06
32403 H 80.51576452831982 108.12818740315943 63.60953147330682 H 0.0 **** 0.06
32404 H 79.13993302286383 107.43176170308702 62.71989398673597 H 0.0 **** 0.06
32405 H 79.88169699940619 108.95046315487149 62.16282763503423 H 0.0 **** 0.06
32406 C 64.48364972280163 11.658381988241658 59.20006615177138 C 0.0 **** -0.24
32407 H 64.54438460197034 11.889966872334313 60.263849244643325 H 0.0 **** 0.06
32408 H 64.77924868177567 10.622395489308477 59.03606033894778 H 0.0 **** 0.06
32409 H 65.14967607719544 12.319558450353995 58.646080354321725 H 0.0 **** 0.06
32410 H 63.45963473559752 11.803744687810592 58.8551071216354 H 0.0 **** 0.06
32411 C 33.515880524662066 5.820334144067587 104.38986390885049 C 0.0 **** -0.24
32412 H 33.225797141686996 6.6399721819759066 105.04786532881857 H 0.0 **** 0.06
32413 H 33.838243201456635 4.969377036043483 104.9896963839287 H 0.0 **** 0.06
32414 H 34.33409114781449 6.1431960660072775 103.7467090110234 H 0.0 **** 0.06
32415 H 32.66347848376506 5.529725788391687 103.77587103637418 H 0.0 **** 0.06
32416 C 12.663156638275137 20.544622815024653 98.52339788178615 C 0.0 **** -0.24
32417 H 12.96430972957754 21.3806694282583 99.15376247904719 H 0.0 **** 0.06
32418 H 12.75970980305829 19.614292873398213 99.08353038308397 H 0.0 **** 0.06
32419 H 13.302396163296606 20.505104072089864 97.64118825473383 H 0.0 **** 0.06
32420 H 11.626218981769558 20.678153657359076 98.21414790186529 H 0.0 **** 0.06
32421 C 81.38562352746528 4.3739352164815415 51.90027516562563 C 0.0 **** -0.24
32422 H 81.62909227335551 5.395256483057011 52.192984141597265 H 0.0 **** 0.06
32423 H 82.29630705119148 3.854185256723042 51.602803823968 H 0.0 **** 0.06
32424 H 80.68770007112576 4.3932963982636295 51.062987447255665 H 0.0 **** 0.06
32425 H 80.92900844643083 3.854669712425107 52.742593802516325 H 0.0 **** 0.06
32426 C 48.23454894264182 92.54165640545341 30.65452042365507 C 0.0 **** -0.24
32427 H 47.56935420632436 91.68818714459525 30.51608634020789 H 0.0 **** 0.06
32428 H 47.64888069158707 93.41340392187948 30.94710664819405 H 0.0 **** 0.06
32429 H 48.757562417035786 92.7499462390831 29.72106878253618 H 0.0 **** 0.06
32430 H 48.96089354387874 92.31238537424821 31.434475577090836 H 0.0 **** 0.06
32431 C 89.1815666761623 105.58723292954954 77.14000718469185 C 0.0 **** -0.24
32432 H 89.76599620243454 104.84653745650863 76.59377822509447 H 0.0 **** 0.06
32433 H 88.85515962782168 105.16289043000094 78.08929195230468 H 0.0 **** 0.06
32434 H 88.31027368216175 105.86956005822483 76.549050657185 H 0.0 **** 0.06
32435 H 89.79584715633038 106.46888748607861 77.32621542151037 H 0.0 **** 0.06
32436 C 85.60855113161263 49.805550094579615 70.96114807068349 C 0.0 **** -0.24
32437 H 85.75833942731208 50.88075394292875 70.86088899566448 H 0.0 **** 0.06
32438 H 85.81623281654346 49.503945952629095 71.98834280713913 H 0.0 **** 0.06
32439 H 86.282174154209 49.28021916255287 70.28386514521412 H 0.0 **** 0.06
32440 H 84.57664202147903 49.55841215329417 70.71173047997837 H 0.0 **** 0.06
32441 C 4.965178767662252 12.843577020586537 4.087789131719802 C 0.0 **** -0.24
32442 H 4.600601000164403 13.51225591352582 4.866836778263831 H 0.0 **** 0.06
32443 H 5.472382128438312 11.99482119356685 4.546773897309805 H 0.0 **** 0.06
32444 H 5.664417362434989 13.381763350089926 3.446888487818896 H 0.0 **** 0.06
32445 H 4.124929626985505 12.488012721290033 3.4916137336675206 H 0.0 **** 0.06
32446 C 48.12733761050953 35.965724737258654 47.66149229417674 C 0.0 **** -0.24
32447 H 47.9351714649501 35.42229536993784 46.736346141266566 H 0.0 **** 0.06
32448 H 47.23661195902685 36.52907585269679 47.94254945904449 H 0.0 **** 0.06
32449 H 48.960722097546665 36.65233069327104 47.51248132754095 H 0.0 **** 0.06
32450 H 48.37532966522836 35.25863138548772 48.45304812700636 H 0.0 **** 0.06
32451 C 35.08803859147406 15.126008552635454 103.92763051021899 C 0.0 **** -0.24
32452 H 35.44454244922528 14.798244759745472 102.9504720429658 H 0.0 **** 0.06
32453 H 35.94011303492189 15.40046363770793 104.5501964114149 H 0.0 **** 0.06
32454 H 34.53613031494697 14.314992663847988 104.40338593178885 H 0.0 **** 0.06
32455 H 34.43385744346506 15.98876985671393 103.80530054474129 H 0.0 **** 0.06
32456 C 112.83163840254583 83.53026985813517 76.04892580110888 C 0.0 **** -0.24
32457 H 112.65927925437079 84.59904680879339 76.1792174249644 H 0.0 **** 0.06
32458 H 113.32828504095454 83.13241234107528 76.93359760037018 H 0.0 **** 0.06
32459 H 113.46131302912593 83.36856293739777 75.17414672531788 H 0.0 **** 0.06
32460 H 111.8778009454898 83.02278052149279 75.90861782313914 H 0.0 **** 0.06
32461 C 96.92185277973965 101.52616817517205 55.557890357317376 C 0.0 **** -0.24
32462 H 97.21573673517896 102.02622286152429 54.635921729988354 H 0.0 **** 0.06
32463 H 96.19115909532076 102.13894178630807 56.08661050403481 H 0.0 **** 0.06
32464 H 97.79888491911305 101.38133969349857 56.18825534149198 H 0.0 **** 0.06
32465 H 96.48041842003275 100.55771068196218 55.32134114337282 H 0.0 **** 0.06
32466 C 92.01369505411498 84.71616356667096 86.25923794021452 C 0.0 **** -0.24
32467 H 92.32942581170352 85.20181185664848 85.33630051326145 H 0.0 **** 0.06
32468 H 91.2001382792177 85.28656012119507 86.7096654698088 H 0.0 **** 0.06
32469 H 92.85345633896651 84.67251443116135 86.95184560345466 H 0.0 **** 0.06
32470 H 91.67032707364899 83.70561181482293 86.03840025712628 H 0.0 **** 0.06
32471 C 37.90889306219518 5.382866965780693 67.03846545538514 C 0.0 **** -0.24
32472 H 37.21550987626121 5.96493927365988 67.64608896550604 H 0.0 **** 0.06
32473 H 37.378409420488204 4.9642748262729555 66.18362898282061 H 0.0 **** 0.06
32474 H 38.326057476537976 4.5747364093510186 67.63924874325144 H 0.0 **** 0.06
32475 H 38.71427243757922 6.028287375517181 66.68830942169333 H 0.0 **** 0.06
32476 C 51.03709655751885 51.183864960778706 13.98203791309345 C 0.0 **** -0.24
32477 H 51.23456035984152 51.49835593142697 15.00725800160393 H 0.0 **** 0.06
32478 H 51.78562414694258 51.619702069816924 13.318351006413138 H 0.0 **** 0.06
32479 H 50.045490253347026 51.52221210697883 13.683341088281622 H 0.0 **** 0.06
32480 H 51.08432323519324 50.096356739973444 13.920221644326375 H 0.0 **** 0.06
32481 C 47.443953534402226 12.678268279220074 6.71030103056885 C 0.0 **** -0.24
32482 H 48.182520345944226 13.068819041744288 6.010542607395102 H 0.0 **** 0.06
32483 H 47.29566353127683 11.613798397637268 6.52524233930167 H 0.0 **** 0.06
32484 H 46.50036795904202 13.206318518228283 6.573787663693697 H 0.0 **** 0.06
32485 H 47.7979740434908 12.824506420273416 7.731033914148384 H 0.0 **** 0.06
32486 C 79.55741889785212 14.043307964317165 94.32541097536827 C 0.0 **** -0.24
32487 H 80.61628960167732 13.79312468681374 94.26626011610986 H 0.0 **** 0.06
32488 H 78.96492251970345 13.205574223847265 93.95857192010365 H 0.0 **** 0.06
32489 H 79.35797431482071 14.925749518786489 93.71739085076914 H 0.0 **** 0.06
32490 H 79.29158128164877 14.24992565189143 95.36281267112687 H 0.0 **** 0.06
32491 C 34.715874440102255 105.96608536374367 34.28793433987573 C 0.0 **** -0.24
32492 H 34.09426212987182 106.7393781123279 33.83734791000563 H 0.0 **** 0.06
32493 H 35.68690100829747 105.94489530097871 33.791126326169206 H 0.0 **** 0.06
32494 H 34.229319076813056 104.9969522176095 34.1754463061456 H 0.0 **** 0.06
32495 H 34.85430667843053 106.18201628759365 35.34746445941056 H 0.0 **** 0.06
32496 C 101.22988156985184 31.982993050470952 73.2820546111609 C 0.0 **** -0.24
32497 H 100.64987459556457 31.15996646563508 73.70083965661848 H 0.0 **** 0.06
32498 H 102.16868125575267 31.598276866120244 72.88198663668281 H 0.0 **** 0.06
32499 H 101.43987341491358 32.7133033684664 74.06321269225228 H 0.0 **** 0.06
32500 H 100.66127702331949 32.45767368631215 72.48336081053753 H 0.0 **** 0.06
32501 C 109.15323920047115 67.53771824355165 90.42208973635616 C 0.0 **** -0.24
32502 H 109.93766817384375 67.50952783363913 89.66658981623249 H 0.0 **** 0.06
32503 H 108.49703515173891 66.67548159691478 90.297410150892 H 0.0 **** 0.06
32504 H 108.57379075723757 68.45451154467742 90.31093992881773 H 0.0 **** 0.06
32505 H 109.60335978152204 67.51131078820217 91.41430332189401 H 0.0 **** 0.06
32506 C 16.286392837974702 20.02926759624026 105.2286252899942 C 0.0 **** -0.24
32507 H 15.890628338025394 20.699035169458938 104.46490899070872 H 0.0 **** 0.06
32508 H 16.483473240016053 20.594833533699443 106.14014504923028 H 0.0 **** 0.06
32509 H 17.212569808886528 19.57964282442589 104.87248146988773 H 0.0 **** 0.06
32510 H 15.557646777278578 19.245374077023854 105.43659854477332 H 0.0 **** 0.06
32511 C 44.67609775883642 16.88745737974571 33.189211146348306 C 0.0 **** -0.24
32512 H 45.00730018813118 16.533640973919802 32.212699688245245 H 0.0 **** 0.06
32513 H 43.60974099657528 17.11037912965662 33.151583194961916 H 0.0 **** 0.06
32514 H 45.227597700274885 17.789685155071822 33.45480594212864 H 0.0 **** 0.06
32515 H 44.86029873518504 16.11553661596858 33.9365912746001 H 0.0 **** 0.06
32516 C 80.95222743115988 36.26378301487313 123.44422312073534 C 0.0 **** -0.24
32517 H 81.40745675705574 35.34725543714228 123.82033640175798 H 0.0 **** 0.06
32518 H 80.42474003618048 36.05147373999711 122.51457829727083 H 0.0 **** 0.06
32519 H 81.72832431608464 37.006929849313906 123.26196753346207 H 0.0 **** 0.06
32520 H 80.24795618691547 36.64785630182442 124.18269348023809 H 0.0 **** 0.06
32521 C 77.42072319207219 27.19539658764208 29.047033746141892 C 0.0 **** -0.24
32522 H 76.73432938543175 27.613407890274473 28.311322016844997 H 0.0 **** 0.06
32523 H 78.39112235935113 27.02137644691365 28.582157255051698 H 0.0 **** 0.06
32524 H 77.02227843006176 26.25147467649029 29.419326530849958 H 0.0 **** 0.06
32525 H 77.53397902587466 27.893987925171018 29.876672838092247 H 0.0 **** 0.06
32526 C 111.7497702364396 68.79142779290657 120.51665384222551 C 0.0 **** -0.24
32527 H 112.67711460901516 68.21984852348618 120.54292589414598 H 0.0 **** 0.06
32528 H 111.76847690299562 69.55135768367143 121.29791713644047 H 0.0 **** 0.06
32529 H 110.9059169359536 68.12095045845308 120.68167656481043 H 0.0 **** 0.06
32530 H 111.64633570415769 69.27171877614245 119.54377843228286 H 0.0 **** 0.06
32531 C 112.04666840446707 44.702841222659785 4.675090388366499 C 0.0 **** -0.24
32532 H 112.68721725473193 44.65800442344014 3.7944091016621826 H 0.0 **** 0.06
32533 H 112.3658815475792 45.526792826286915 5.314410736410991 H 0.0 **** 0.06
32534 H 112.12092866061877 43.764848479304014 5.226176393584268 H 0.0 **** 0.06
32535 H 111.01362746466665 44.86152943364358 4.365398308781494 H 0.0 **** 0.06
32536 C 71.2922931808898 75.83916458546514 121.40406118793547 C 0.0 **** -0.24
32537 H 70.82822237004515 74.8629466206976 121.54644975333015 H 0.0 **** 0.06
32538 H 71.44114548318854 76.31551933520727 122.37396940122255 H 0.0 **** 0.06
32539 H 70.64356728445625 76.46295022611382 120.78909460772691 H 0.0 **** 0.06
32540 H 72.2551728362819 75.714963180099 120.90891932224316 H 0.0 **** 0.06
32541 C 61.916403516449094 90.15436998912843 78.68100801855417 C 0.0 **** -0.24
32542 H 62.41574214300229 89.99414621484159 79.63614933926381 H 0.0 **** 0.06
32543 H 62.55925041670784 89.80750498203082 77.87221928500027 H 0.0 **** 0.06
32544 H 61.70974025071774 91.21604036216175 78.5520276549117 H 0.0 **** 0.06
32545 H 60.97851266802067 89.59713013789495 78.66420513419072 H 0.0 **** 0.06
32546 C 26.273175989626736 28.05484771278941 0.11182609757875106 C 0.0 **** -0.24
32547 H 26.93384284772594 27.22839609238389 0.3743118016695206 H 0.0 **** 0.06
32548 H 25.811151761862448 27.857135202060533 -0.8553616184826041 H 0.0 **** 0.06
32549 H 26.849037141333838 28.978397598581523 0.05854184295605336 H 0.0 **** 0.06
32550 H 25.49820594712577 28.15357306605938 0.8724984910834337 H 0.0 **** 0.06
32551 C 66.20003242896277 103.70381251830588 27.551050131683297 C 0.0 **** -0.24
32552 H 66.5591857406038 104.68510056166056 27.23941664237796 H 0.0 **** 0.06
32553 H 67.03869903672702 103.008464632949 27.598277241986366 H 0.0 **** 0.06
32554 H 65.46627049479505 103.34034157023774 26.831539876818454 H 0.0 **** 0.06
32555 H 65.73643571139283 103.78246107111164 28.534233317628946 H 0.0 **** 0.06
32556 C 26.634255890509905 83.35735622020093 53.66665516208883 C 0.0 **** -0.24
32557 H 27.10614006639451 83.29231693664596 52.6859921465001 H 0.0 **** 0.06
32558 H 26.729151870632023 82.39988405960833 54.17937199462102 H 0.0 **** 0.06
32559 H 25.579193025326603 83.60201996186254 53.5450669432235 H 0.0 **** 0.06
32560 H 27.122186155212653 84.1349678065067 54.25399404581211 H 0.0 **** 0.06
32561 C 4.266142947740235 52.673008048053035 9.428369523530154 C 0.0 **** -0.24
32562 H 4.747083785122101 52.99433381994328 8.505024347727272 H 0.0 **** 0.06
32563 H 3.707824869247105 53.50589574400975 9.855854867788487 H 0.0 **** 0.06
32564 H 5.024465445088765 52.34111187772339 10.136974200137818 H 0.0 **** 0.06
32565 H 3.5832852099601666 51.84988811596966 9.214788939140998 H 0.0 **** 0.06
32566 C 36.465323181740644 16.282491993886964 53.57162485299756 C 0.0 **** -0.24
32567 H 37.38487913970397 16.831144292868487 53.77407527782674 H 0.0 **** 0.06
32568 H 36.39999514832016 16.06630646910807 52.504826922070436 H 0.0 **** 0.06
32569 H 35.60877461046738 16.88451646611226 53.87366416483559 H 0.0 **** 0.06
32570 H 36.46932465519302 15.348339836034668 54.132497739420444 H 0.0 **** 0.06
32571 C 104.24267579636896 82.69601160706566 1.2141167668240929 C 0.0 **** -0.24
32572 H 103.32404731466337 83.15311206702796 0.8464027673257277 H 0.0 **** 0.06
32573 H 104.35037348863747 81.69945712666652 0.7846541510721696 H 0.0 **** 0.06
32574 H 104.20105661015046 82.62152639302577 2.3015585330086505 H 0.0 **** 0.06
32575 H 105.09548239461631 83.3111746492259 0.9257054518365972 H 0.0 **** 0.06
32576 C 29.032107710378654 11.093938110882448 120.64283309552907 C 0.0 **** -0.24
32577 H 28.877128478224023 10.347916131977058 121.42188079523869 H 0.0 **** 0.06
32578 H 29.208752398228768 12.067130762991042 121.10183469768197 H 0.0 **** 0.06
32579 H 28.146691286788524 11.146459070087587 120.00884804639868 H 0.0 **** 0.06
32580 H 29.894714506461185 10.815069216931533 120.0388875000459 H 0.0 **** 0.06
32581 C 68.15887906784297 30.315883486852613 117.24535478924068 C 0.0 **** -0.24
32582 H 69.08795394950732 29.83339912338677 117.54927159183553 H 0.0 **** 0.06
32583 H 67.59642733674065 30.611706739424463 118.13154349318647 H 0.0 **** 0.06
32584 H 67.56450021050739 29.6193537312705 116.65378670679198 H 0.0 **** 0.06
32585 H 68.38698811630974 31.19861678443494 116.64763335165554 H 0.0 **** 0.06
32586 C 13.560556001961942 81.48676495753288 113.3599464757794 C 0.0 **** -0.24
32587 H 13.238498564814961 80.6306019094364 112.76655234912347 H 0.0 **** 0.06
32588 H 12.809590304347239 81.70533960239172 114.11883798840577 H 0.0 **** 0.06
32589 H 13.683202925375042 82.35251775924404 112.70938939982824 H 0.0 **** 0.06
32590 H 14.51085910701272 81.25752940310294 113.84280443868147 H 0.0 **** 0.06
32591 C 122.8819406281977 35.36856238596326 44.837184559295196 C 0.0 **** -0.24
32592 H 123.11877361806549 35.49184644978483 43.780054047142414 H 0.0 **** 0.06
32593 H 122.56663278951584 34.34045269654579 45.02035999768866 H 0.0 **** 0.06
32594 H 122.07679440187519 36.05043010976883 45.11114929611999 H 0.0 **** 0.06
32595 H 123.76565866622383 35.589848246161544 45.435693294653916 H 0.0 **** 0.06
32596 C 114.74284048737385 120.57412461786865 14.089621583668645 C 0.0 **** -0.24
32597 H 115.76055669829253 120.70773577678318 13.72087565745332 H 0.0 **** 0.06
32598 H 114.735415238934 119.80254720840847 14.860295924462832 H 0.0 **** 0.06
32599 H 114.09543266726237 120.27290361628096 13.266917715193273 H 0.0 **** 0.06
32600 H 114.38431388870092 121.51343712120425 14.51047357529444 H 0.0 **** 0.06
32601 C 39.933769234054324 36.36227496878303 106.61147521618079 C 0.0 **** -0.24
32602 H 40.26302288846463 37.24495713471288 106.06243425302623 H 0.0 **** 0.06
32603 H 39.66887235599759 36.64629476421396 107.63021371897176 H 0.0 **** 0.06
32604 H 40.740219162815265 35.62899120571652 106.6366778831916 H 0.0 **** 0.06
32605 H 39.06429395552286 35.929330371488675 106.116519218906 H 0.0 **** 0.06
32606 C 84.51524102058741 39.843755239051035 98.51681516957264 C 0.0 **** -0.24
32607 H 83.63629004508655 40.10311318587796 97.92682251285977 H 0.0 **** 0.06
32608 H 85.15277095920081 39.17143048261795 97.9423095309521 H 0.0 **** 0.06
32609 H 84.20107081695394 39.34995982885954 99.43735141587224 H 0.0 **** 0.06
32610 H 85.06875150151066 40.749968038644965 98.76138454475843 H 0.0 **** 0.06
32611 C 93.27426512439757 121.54849595292399 88.7761832940357 C 0.0 **** -0.24
32612 H 93.16073378977154 122.6171724486241 88.95605782910503 H 0.0 **** 0.06
32613 H 93.7297373030161 121.07964291305964 89.64949407928742 H 0.0 **** 0.06
32614 H 93.91175930943308 121.39137879210219 87.90646435302592 H 0.0 **** 0.06
32615 H 92.29565454135162 121.10508842292614 88.59467365344969 H 0.0 **** 0.06
32616 C 91.89738150134377 35.06247842639833 104.71168153228757 C 0.0 **** -0.24
32617 H 91.7799251725962 35.593415559166345 105.65685216720135 H 0.0 **** 0.06
32618 H 92.61384337240608 34.24985760548296 104.8387192719199 H 0.0 **** 0.06
32619 H 92.26072941021195 35.752246393570886 103.95018817535049 H 0.0 **** 0.06
32620 H 90.93571194157403 34.65335256452275 104.40369559516728 H 0.0 **** 0.06
32621 C 76.66499751474058 28.493762200524372 53.65801682025645 C 0.0 **** -0.24
32622 H 77.38610559755847 27.810725907009328 54.10663720014699 H 0.0 **** 0.06
32623 H 75.65439044174565 28.179713677162276 53.919857607961404 H 0.0 **** 0.06
32624 H 76.78028678616002 28.48259141135952 52.57344437415961 H 0.0 **** 0.06
32625 H 76.8408446675127 29.50257134322011 54.03039237736252 H 0.0 **** 0.06
32626 C 16.94097831723974 23.968200999055625 26.28968110526489 C 0.0 **** -0.24
32627 H 17.12491408562596 25.040956339899566 26.216849673597693 H 0.0 **** 0.06
32628 H 16.962088827202592 23.52815441522131 25.293021674607417 H 0.0 **** 0.06
32629 H 15.964527470088171 23.79812156479867 26.742965147177472 H 0.0 **** 0.06
32630 H 17.713443037124648 23.50863168365491 26.90747321170653 H 0.0 **** 0.06
32631 C 14.929475740388892 112.17067879016042 62.86031556811217 C 0.0 **** -0.24
32632 H 14.964832444940185 113.11022629200713 63.411598700548424 H 0.0 **** 0.06
32633 H 14.026499566078588 112.14081593751104 62.25051564491615 H 0.0 **** 0.06
32634 H 14.921061463248215 111.33652172935564 63.563191092316345 H 0.0 **** 0.06
32635 H 15.80618473685616 112.09409677861339 62.21715365992807 H 0.0 **** 0.06
32636 C 2.2664805517341335 116.27096165698731 27.076458901915366 C 0.0 **** -0.24
32637 H 3.013909006621077 117.05660631642971 26.960566942971035 H 0.0 **** 0.06
32638 H 1.7653513737521394 116.1043117923891 26.12204747705791 H 0.0 **** 0.06
32639 H 1.533362060098284 116.57420158736018 27.823926312648965 H 0.0 **** 0.06
32640 H 2.7544009975283075 115.35098258423592 27.397371373401306 H 0.0 **** 0.06
32641 C 109.6917256916507 79.38602878967262 90.63948444081774 C 0.0 **** -0.24
32642 H 108.93404603160945 80.09521313273544 90.30459361566358 H 0.0 **** 0.06
32643 H 109.85082464970714 79.50276940602797 91.71149603573605 H 0.0 **** 0.06
32644 H 110.62599146779709 79.57732714474304 90.11083696891836 H 0.0 **** 0.06
32645 H 109.35655113197369 78.3702182124106 90.4290762346264 H 0.0 **** 0.06
32646 C 6.85528854463459 64.54613349433352 114.70036151330584 C 0.0 **** -0.24
32647 H 6.214587104043062 63.7328498683265 114.3576937709648 H 0.0 **** 0.06
32648 H 7.857837869533398 64.41405779908085 114.29352546904464 H 0.0 **** 0.06
32649 H 6.9000226193889205 64.53879771383659 115.78887687496902 H 0.0 **** 0.06
32650 H 6.446522649606862 65.49744279256608 114.35982992018515 H 0.0 **** 0.06
32651 C 91.11225078307024 48.284254506346514 45.671416601943804 C 0.0 **** -0.24
32652 H 90.97783266827585 47.719956802730366 46.59447218109054 H 0.0 **** 0.06
32653 H 92.1117710172099 48.09929454131114 45.275392705826455 H 0.0 **** 0.06
32654 H 90.99184439159211 49.348211805423944 45.87456643831019 H 0.0 **** 0.06
32655 H 90.36682093259664 47.966654821857134 44.941461429719475 H 0.0 **** 0.06
32656 C 44.980069457095155 51.430434467933964 9.448210120171353 C 0.0 **** -0.24
32657 H 45.82124349386285 51.47585510978172 8.75690130182764 H 0.0 **** 0.06
32658 H 45.33824544541585 51.581514761485124 10.466844228694299 H 0.0 **** 0.06
32659 H 44.500339533317856 50.453757613328605 9.372333115911403 H 0.0 **** 0.06
32660 H 44.26029350188284 52.20969616576144 9.196387718687845 H 0.0 **** 0.06
32661 C 90.8348542826223 22.78331287073351 63.56796985106442 C 0.0 **** -0.24
32662 H 91.01711456949607 21.792953580107252 63.98676507668313 H 0.0 **** 0.06
32663 H 91.58781625693598 23.478604087385463 63.93821714970687 H 0.0 **** 0.06
32664 H 89.84468504922481 23.127009371956945 63.86649839037628 H 0.0 **** 0.06
32665 H 90.88918979329247 22.7334128166236 62.480494637163275 H 0.0 **** 0.06
32666 C 110.03130726354077 34.13806715517114 106.32005971101135 C 0.0 **** -0.24
32667 H 110.92099219874952 34.01201979732616 106.93709738404333 H 0.0 **** 0.06
32668 H 109.16874074623993 34.3230125259326 106.96139191574433 H 0.0 **** 0.06
32669 H 109.86253473718214 33.232615071516875 105.7363113760589 H 0.0 **** 0.06
32670 H 110.17180715255503 34.983590324333875 105.64705225851647 H 0.0 **** 0.06
32671 C 115.78369511178263 10.71127218691322 40.62115509674345 C 0.0 **** -0.24
32672 H 114.75664313896863 10.813531828724535 40.26998569997954 H 0.0 **** 0.06
32673 H 115.83836645121687 9.905245222661165 41.353302839428636 H 0.0 **** 0.06
32674 H 116.10430719968878 11.64485471392885 41.083552399447996 H 0.0 **** 0.06
32675 H 116.43461940759897 10.48159243527067 39.77726084553095 H 0.0 **** 0.06
32676 C 121.91431873129069 115.26100854360988 41.87466529449699 C 0.0 **** -0.24
32677 H 121.85623385363789 116.15062680004792 41.24624959006968 H 0.0 **** 0.06
32678 H 120.90700911416539 114.91929904595224 42.11387585322316 H 0.0 **** 0.06
32679 H 122.44430744545954 115.50174603464706 42.796070262848815 H 0.0 **** 0.06
32680 H 122.44833056040841 114.47478441093705 41.34202880633913 H 0.0 **** 0.06
32681 C 47.00961496694845 107.0260784027939 29.70630504094931 C 0.0 **** -0.24
32682 H 46.42934506574494 106.64051860095981 30.543634188627493 H 0.0 **** 0.06
32683 H 46.612948649718874 107.99686567172668 29.405519846597635 H 0.0 **** 0.06
32684 H 46.94479786177118 106.3323451613314 28.868739175096948 H 0.0 **** 0.06
32685 H 48.05200989697113 107.13672472043103 30.007245198817557 H 0.0 **** 0.06
32686 C 12.341310228453487 85.49751226703061 8.88465332495457 C 0.0 **** -0.24
32687 H 12.359300744060132 84.51457866177377 9.355612543830745 H 0.0 **** 0.06
32688 H 11.47845725998243 85.56560912853054 8.221170584526078 H 0.0 **** 0.06
32689 H 13.255854217605204 85.64050006908211 8.30850618761778 H 0.0 **** 0.06
32690 H 12.271506250661162 86.26724899858233 9.652600212842032 H 0.0 **** 0.06
32691 C 114.3972474633381 4.5249329802998695 115.41474402481577 C 0.0 **** -0.24
32692 H 113.65766720545919 4.115270352031608 116.10331233989389 H 0.0 **** 0.06
32693 H 114.70856367424996 5.511068891742127 115.76192695267156 H 0.0 **** 0.06
32694 H 113.95905995482786 4.610098191618004 114.42056231233161 H 0.0 **** 0.06
32695 H 115.26203802396118 3.8632847722316903 115.37604531160184 H 0.0 **** 0.06
32696 C 51.786592941201604 9.707709320303849 55.52733042373359 C 0.0 **** -0.24
32697 H 51.79351134694892 8.689491869609498 55.136368597390856 H 0.0 **** 0.06
32698 H 52.78661326922608 10.133254909696177 55.44877497223524 H 0.0 **** 0.06
32699 H 51.47714183721695 9.693249009242521 56.57280097216966 H 0.0 **** 0.06
32700 H 51.08726111512837 10.312636427595407 54.95051860162414 H 0.0 **** 0.06
32701 C 121.42230498286615 59.57132772153918 18.297365272550408 C 0.0 **** -0.24
32702 H 121.65492585121518 59.40926335567511 17.24441445102228 H 0.0 **** 0.06
32703 H 120.34517247493396 59.499272132324705 18.44720267229016 H 0.0 **** 0.06
32704 H 121.76601335245242 60.56139883796479 18.59726602221872 H 0.0 **** 0.06
32705 H 121.92460962003844 58.813721397296064 18.900496701145514 H 0.0 **** 0.06
32706 C 46.55288085043445 19.3604196351381 9.189818947806145 C 0.0 **** -0.24
32707 H 46.233571922969446 20.390008441363136 9.02363083781745 H 0.0 **** 0.06
32708 H 47.613898860844415 19.26792684434568 8.959839548371008 H 0.0 **** 0.06
32709 H 45.981450756505836 18.694975273330982 8.542780192337318 H 0.0 **** 0.06
32710 H 46.381107724114074 19.090369969495498 10.230975414945192 H 0.0 **** 0.06
32711 C 8.717480573731933 41.85520106397382 92.22158006107117 C 0.0 **** -0.24
32712 H 8.528679134876654 41.33641884515839 91.28152700220869 H 0.0 **** 0.06
32713 H 9.177720448003328 42.82188108295196 92.01665637801202 H 0.0 **** 0.06
32714 H 9.387060816060284 41.25671903803794 92.83890837284667 H 0.0 **** 0.06
32715 H 7.774711934588481 42.00562594981949 92.74784555448439 H 0.0 **** 0.06
32716 C 78.07898510087665 67.47237954262914 91.38478054914589 C 0.0 **** -0.24
32717 H 78.09368511575124 66.50807831667842 91.89303617293291 H 0.0 **** 0.06
32718 H 78.3642587376261 67.33728678081624 90.34139441986525 H 0.0 **** 0.06
32719 H 78.78253942095606 68.1483390247032 91.86955651887627 H 0.0 **** 0.06
32720 H 77.07513624667624 67.89401875484492 91.4364290029456 H 0.0 **** 0.06
32721 C 61.21603288651477 80.0467404029502 19.49459632689988 C 0.0 **** -0.24
32722 H 60.56360839376049 80.14006977520472 18.625969445938708 H 0.0 **** 0.06
32723 H 61.56605645015571 79.01770803037692 19.575692459377834 H 0.0 **** 0.06
32724 H 60.66224614162127 80.31411077265949 20.394515228393075 H 0.0 **** 0.06
32725 H 62.069797584761716 80.7139241790627 19.38086288417182 H 0.0 **** 0.06
32726 C 11.42337104867795 26.43347693292054 17.549147138926433 C 0.0 **** -0.24
32727 H 12.443850301236637 26.174453654667005 17.26536942370958 H 0.0 **** 0.06
32728 H 11.446105106009554 27.14233078509156 18.377983181553855 H 0.0 **** 0.06
32729 H 10.892146617600247 25.53248432147616 17.855791265676523 H 0.0 **** 0.06
32730 H 10.913259011786465 26.885098153732855 16.69895031979996 H 0.0 **** 0.06
32731 C 29.57203140896138 1.325734104845992 94.3732330808649 C 0.0 **** -0.24
32732 H 28.545910022930286 1.453546097251376 94.0276904167423 H 0.0 **** 0.06
32733 H 29.63749339667919 0.43143539317838986 94.99231482624191 H 0.0 **** 0.06
32734 H 29.86824862473901 2.1965225836468676 94.95845911839945 H 0.0 **** 0.06
32735 H 30.233522167616286 1.223222804457066 93.51302431951609 H 0.0 **** 0.06
32736 C 32.145922969349726 72.55146547443343 58.60903657812946 C 0.0 **** -0.24
32737 H 32.97981382848883 71.84938639722269 58.576176581868 H 0.0 **** 0.06
32738 H 32.48127096050433 73.53081983018038 58.26797431429307 H 0.0 **** 0.06
32739 H 31.777913159412236 72.62863767342732 59.63238303293494 H 0.0 **** 0.06
32740 H 31.345469079675524 72.19391762255286 57.96155855171915 H 0.0 **** 0.06
32741 C 39.62328643165432 31.403180762217097 60.8941489980091 C 0.0 **** -0.24
32742 H 40.52820128004146 31.75622554403656 61.389755961014004 H 0.0 **** 0.06
32743 H 39.47957956333505 30.34476944929218 61.11262225338048 H 0.0 **** 0.06
32744 H 39.72053105950454 31.542508514746373 59.81725067767694 H 0.0 **** 0.06
32745 H 38.76544725881712 31.968834226508335 61.258181734704635 H 0.0 **** 0.06
32746 C 57.5005262151019 50.702486503313224 63.33055244655506 C 0.0 **** -0.24
32747 H 56.6479339977754 50.052701401873705 63.52725660304668 H 0.0 **** 0.06
32748 H 57.62953397936542 50.81549758301078 62.2539953346955 H 0.0 **** 0.06
32749 H 58.399619388684926 50.261965105277966 63.76146551291457 H 0.0 **** 0.06
32750 H 57.32289366322448 51.67957089959613 63.78015947690294 H 0.0 **** 0.06
32751 C 18.057651582002052 42.72053264437167 20.41352204724069 C 0.0 **** -0.24
32752 H 18.263431143138575 42.616627605790455 19.34782496907082 H 0.0 **** 0.06
32753 H 18.95454969833503 42.47511552047072 20.98190738365342 H 0.0 **** 0.06
32754 H 17.251926763701192 42.04402016047314 20.695392562543326 H 0.0 **** 0.06
32755 H 17.761185539447183 43.74787119816568 20.627092019084387 H 0.0 **** 0.06
32756 C 109.64665281133422 108.1242862577397 45.55016292490524 C 0.0 **** -0.24
32757 H 109.77766033364719 108.75016054252205 46.43366006015975 H 0.0 **** 0.06
32758 H 108.62150823953158 107.75650219689476 45.51434163754632 H 0.0 **** 0.06
32759 H 110.33484765578501 107.28005398242146 45.59799028752033 H 0.0 **** 0.06
32760 H 109.85369064584864 108.71221808433489 44.65543209309203 H 0.0 **** 0.06
32761 C 112.57500948991517 103.86565397246648 98.3713218416624 C 0.0 **** -0.24
32762 H 111.53152077649285 103.58108948897518 98.50525484606862 H 0.0 **** 0.06
32763 H 112.9083052957721 104.44202076647292 99.23513200832906 H 0.0 **** 0.06
32764 H 112.67297932770467 104.47212511414591 97.46995595213036 H 0.0 **** 0.06
32765 H 113.18670326539906 102.96919434357989 98.27374866686665 H 0.0 **** 0.06
32766 C 13.522235036765068 52.95004215795518 103.79533811007957 C 0.0 **** -0.24
32767 H 13.983739233956896 53.90833021989491 104.02981300360923 H 0.0 **** 0.06
32768 H 13.412990938900606 52.85436194842251 102.71436780003879 H 0.0 **** 0.06
32769 H 12.54046188634996 52.89413330618896 104.26549487730023 H 0.0 **** 0.06
32770 H 14.151499433984782 52.14272567966148 104.1704289613694 H 0.0 **** 0.06
32771 C 102.51018523211957 0.9374185181160897 64.78566144642508 C 0.0 **** -0.24
32772 H 101.63506834251058 0.37755988272260765 64.45508396820446 H 0.0 **** 0.06
32773 H 103.07049878661388 0.34232959374406846 65.50843923234515 H 0.0 **** 0.06
32774 H 102.1892650309689 1.8688473923267566 65.25245176561776 H 0.0 **** 0.06
32775 H 103.14445536000414 1.1595211646450139 63.92804295629594 H 0.0 **** 0.06
32776 C 84.95556594817448 58.84386181647507 53.87748286220388 C 0.0 **** -0.24
32777 H 85.73677501225244 58.11247472942914 54.084045255651816 H 0.0 **** 0.06
32778 H 85.28235490408078 59.508541187808575 53.077478458971754 H 0.0 **** 0.06
32779 H 84.75855541314343 59.4279788840675 54.77702656071676 H 0.0 **** 0.06
32780 H 84.04523346392817 58.32725384350566 53.57336335258765 H 0.0 **** 0.06
32781 C 61.7024619516022 116.62260811590218 57.809550627053014 C 0.0 **** -0.24
32782 H 62.15147746015535 117.34426867512981 58.4906561412585 H 0.0 **** 0.06
32783 H 62.017529019267016 116.84139935073127 56.78880095293685 H 0.0 **** 0.06
32784 H 60.61609921202714 116.68754058856757 57.87578895333675 H 0.0 **** 0.06
32785 H 62.0231688392461 115.61699419436364 58.08138409611841 H 0.0 **** 0.06
32786 C 80.82261053505002 111.11615691839745 3.7977682788051776 C 0.0 **** -0.24
32787 H 79.89898343057973 111.32033893501122 4.338902602518299 H 0.0 **** 0.06
32788 H 81.43638704643323 112.01655349099497 3.775028332345304 H 0.0 **** 0.06
32789 H 80.58572232683989 110.81079942532477 2.7788141778811504 H 0.0 **** 0.06
32790 H 81.36737387384497 110.3166977244615 4.299348358031192 H 0.0 **** 0.06
32791 C 75.10769702785649 2.9486839906924445 99.50239922062303 C 0.0 **** -0.24
32792 H 75.41214335752187 2.016521105366593 99.02774415550562 H 0.0 **** 0.06
32793 H 75.91013097239579 3.305665281632031 100.14858330573486 H 0.0 **** 0.06
32794 H 74.21083779065737 2.776612095474661 100.09815128364414 H 0.0 **** 0.06
32795 H 74.89914484745714 3.695046186973883 98.73614198866017 H 0.0 **** 0.06
32796 C 59.98279334947843 34.083591342282034 36.51331346656945 C 0.0 **** -0.24
32797 H 60.373143939426654 33.428049372155215 35.734370663755314 H 0.0 **** 0.06
32798 H 60.74698880571947 34.23731422381968 37.275080016962086 H 0.0 **** 0.06
32799 H 59.10382877551622 33.625705279790054 36.966986626632654 H 0.0 **** 0.06
32800 H 59.70759451935872 35.04314986265291 36.07590434290259 H 0.0 **** 0.06
32801 C 71.02899204230383 122.45625865288952 44.28918170277291 C 0.0 **** -0.24
32802 H 71.40145346063872 122.00200148819678 45.20715752418812 H 0.0 **** 0.06
32803 H 70.22390865952437 123.1518113278855 44.528290433301606 H 0.0 **** 0.06
32804 H 70.65154782519997 121.67842696871622 43.62579990309786 H 0.0 **** 0.06
32805 H 71.83848986160004 122.99384949203062 43.79422802828918 H 0.0 **** 0.06
32806 C 12.334429226796573 31.716184090088802 2.566395997234494 C 0.0 **** -0.24
32807 H 12.593514387834688 32.63174442910284 2.0343651055275274 H 0.0 **** 0.06
32808 H 12.309650782268392 30.883226126768392 1.8647773743481366 H 0.0 **** 0.06
32809 H 11.353492462259311 31.830196232890373 3.0295008321231762 H 0.0 **** 0.06
32810 H 13.079012817840322 31.52154658417409 3.337891422796403 H 0.0 **** 0.06
32811 C 104.69326850885444 115.50153081881052 30.287516527606932 C 0.0 **** -0.24
32812 H 104.12721411531943 114.71176168786647 30.77993583212311 H 0.0 **** 0.06
32813 H 104.1459966932811 116.4420793200984 30.3614480105746 H 0.0 **** 0.06
32814 H 104.83643396915565 115.24625891884801 29.237609099401823 H 0.0 **** 0.06
32815 H 105.66453133304788 115.60689287757802 30.770901540389055 H 0.0 **** 0.06
32816 C 118.90923222379263 79.87446263176267 7.6388901824955155 C 0.0 **** -0.24
32817 H 117.95180127493671 79.38065740465072 7.473556974930091 H 0.0 **** 0.06
32818 H 119.42002178918494 79.4038245726245 8.478794064152282 H 0.0 **** 0.06
32819 H 118.74129804370205 80.92867821911395 7.859653233456129 H 0.0 **** 0.06
32820 H 119.52415550604152 79.78446684207685 6.742645854244984 H 0.0 **** 0.06
32821 C 96.93920895237281 49.74744734544731 115.90619458388738 C 0.0 **** -0.24
32822 H 96.95486896507555 49.361285806594054 114.88685030717102 H 0.0 **** 0.06
32823 H 95.91705823252241 49.72779889519194 116.28595321864623 H 0.0 **** 0.06
32824 H 97.30958782277244 50.77213517913748 115.91148553702914 H 0.0 **** 0.06
32825 H 97.57353941390903 49.127440000032436 116.53974684537246 H 0.0 **** 0.06
32826 C 97.89987062098655 77.25617790149924 34.5653956312809 C 0.0 **** -0.24
32827 H 97.80222189651053 77.77927446872701 35.51655881545234 H 0.0 **** 0.06
32828 H 97.44608352271112 77.85436994324355 33.77414955694039 H 0.0 **** 0.06
32829 H 97.39395169727825 76.29280548420098 34.627792155540305 H 0.0 **** 0.06
32830 H 98.95513051474569 77.09902431093397 34.34325606566093 H 0.0 **** 0.06
32831 C 64.31179036874151 33.16764287634351 9.863796097295221 C 0.0 **** -0.24
32832 H 64.16736572441607 34.08519435197837 9.29288581480148 H 0.0 **** 0.06
32833 H 65.17689134539016 32.63016409365571 9.474547330168434 H 0.0 **** 0.06
32834 H 63.42419121219922 32.541209260640244 9.774300969080798 H 0.0 **** 0.06
32835 H 64.47828547778035 33.41380249262164 10.912117367528708 H 0.0 **** 0.06
32836 C 33.69513234022827 92.01744239013898 6.845420921843495 C 0.0 **** -0.24
32837 H 33.224347818716254 92.29606603992465 5.902150253996787 H 0.0 **** 0.06
32838 H 34.4493490928395 92.75908448415059 7.108696074897367 H 0.0 **** 0.06
32839 H 34.167199836259826 91.04078534165554 6.74089355358738 H 0.0 **** 0.06
32840 H 32.93879680805176 91.97304142398897 7.629122924818919 H 0.0 **** 0.06
32841 C 101.398370774743 111.16900979193974 30.92227610024682 C 0.0 **** -0.24
32842 H 101.87001112369383 110.89016389847484 29.98015294505072 H 0.0 **** 0.06
32843 H 100.47767445436787 111.7166007532274 30.71959368991017 H 0.0 **** 0.06
32844 H 102.07773452307657 111.80038918408496 31.495883741917595 H 0.0 **** 0.06
32845 H 101.16883928954563 110.26924455092546 31.492955963740712 H 0.0 **** 0.06
32846 C 41.847306919190885 90.64781862040698 46.32756159085966 C 0.0 **** -0.24
32847 H 41.9149663824428 89.91207604905944 45.52522571659523 H 0.0 **** 0.06
32848 H 42.174180785546355 90.19389300055533 47.263827465779 H 0.0 **** 0.06
32849 H 40.81516257145461 90.98342613417381 46.42578746528835 H 0.0 **** 0.06
32850 H 42.486295020119485 91.49933261789468 46.093256585409904 H 0.0 **** 0.06
32851 C 32.1331522650884 105.29963618149849 76.41341979967834 C 0.0 **** -0.24
32852 H 32.57816030901074 104.34177137476074 76.68159982382204 H 0.0 **** 0.06
32853 H 32.92190279065579 106.01520126640513 76.18142644143134 H 0.0 **** 0.06
32854 H 31.53954461919878 105.67119194202589 77.24980253875108 H 0.0 **** 0.06
32855 H 31.491194847226126 105.17067823757239 75.54247767456499 H 0.0 **** 0.06
32856 C 14.94325139762902 0.761630729307285 78.5343521986739 C 0.0 **** -0.24
32857 H 15.664230838687484 1.1498885030553083 77.81469236705854 H 0.0 **** 0.06
32858 H 14.0203897664585 0.4972624618480097 78.01598490408156 H 0.0 **** 0.06
32859 H 14.733212478413705 1.5233952329615192 79.28521317471865 H 0.0 **** 0.06
32860 H 15.35504257826565 -0.12298317172059114 79.0187073393038 H 0.0 **** 0.06
32861 C 87.53333211356191 95.6958513177569 16.95473238786959 C 0.0 **** -0.24
32862 H 87.38541070526934 96.53975843126238 17.62822234583391 H 0.0 **** 0.06
32863 H 86.8735407554672 95.79746563238248 16.093582833460065 H 0.0 **** 0.06
32864 H 87.3070777548074 94.7683609719144 17.479986886863806 H 0.0 **** 0.06
32865 H 88.57003757037305 95.67861527634048 16.618070186931977 H 0.0 **** 0.06
32866 C 40.23018140004777 71.02344423547103 63.66635084878166 C 0.0 **** -0.24
32867 H 41.24772051638067 70.82951273397737 64.00755093199982 H 0.0 **** 0.06
32868 H 40.20203803965305 71.96947935273634 63.12600725799615 H 0.0 **** 0.06
32869 H 39.56202138094642 71.07528538910259 64.52670917946986 H 0.0 **** 0.06
32870 H 39.909194448787474 70.21789345768016 63.00573519480767 H 0.0 **** 0.06
32871 C 24.293097756887704 5.348299374244675 20.468419575404255 C 0.0 **** -0.24
32872 H 25.133663590173768 5.540920700463289 21.13687596109488 H 0.0 **** 0.06
32873 H 24.666263854657615 4.964737747874949 19.518332579666463 H 0.0 **** 0.06
32874 H 23.747073191008866 6.2756627815554396 20.296477811298956 H 0.0 **** 0.06
32875 H 23.629621636779518 4.613560682915505 20.922502277467892 H 0.0 **** 0.06
32876 C 90.90104073936504 95.09811015566807 32.82906266254551 C 0.0 **** -0.24
32877 H 91.11289260721614 95.73859828751223 33.68534734552637 H 0.0 **** 0.06
32878 H 91.75421313451065 94.44577893482341 32.64402610733819 H 0.0 **** 0.06
32879 H 90.71840916963333 95.71656646161635 31.94981852245388 H 0.0 **** 0.06
32880 H 90.01810125578257 94.49339195769544 33.037390545210684 H 0.0 **** 0.06
32881 C 57.035975377387246 21.40301759952075 86.20759418270455 C 0.0 **** -0.24
32882 H 57.739701191089836 20.942712931124255 86.90125642605214 H 0.0 **** 0.06
32883 H 56.94094895229807 22.46444015227135 86.43990632469074 H 0.0 **** 0.06
32884 H 56.06301507260295 20.920761425629316 86.30372926761184 H 0.0 **** 0.06
32885 H 57.40099329646114 21.285033742158213 85.18739693333409 H 0.0 **** 0.06
32886 C 62.859879568159045 115.19392988760534 107.49750331813317 C 0.0 **** -0.24
32887 H 63.22192663436556 116.11941783783826 107.04815850762824 H 0.0 **** 0.06
32888 H 62.012243954523115 114.81937405076708 106.92393337442432 H 0.0 **** 0.06
32889 H 62.54840927090913 115.38700048463453 108.52372145704226 H 0.0 **** 0.06
32890 H 63.65852586792914 114.45244930379388 107.49385446810228 H 0.0 **** 0.06
32891 C 71.17909069421255 105.34189491388915 83.73602800717354 C 0.0 **** -0.24
32892 H 70.84298348955625 104.74535389230142 84.5834213039254 H 0.0 **** 0.06
32893 H 70.88163345800307 106.38062612985769 83.88228599817417 H 0.0 **** 0.06
32894 H 70.72756338287864 104.95949728687792 82.82017382037755 H 0.0 **** 0.06
32895 H 72.26451359679331 105.28304513306662 83.65819157969321 H 0.0 **** 0.06
32896 C 61.00795428580274 87.98558832434081 25.819252054458047 C 0.0 **** -0.24
32897 H 61.14366941977839 88.85494990320932 26.46316865933528 H 0.0 **** 0.06
32898 H 61.34906504412696 87.09064547438523 26.341322495999975 H 0.0 **** 0.06
32899 H 61.58706098914574 88.1164554477329 24.904800326946884 H 0.0 **** 0.06
32900 H 59.952611634761666 87.88059306638108 25.570076363070825 H 0.0 **** 0.06
32901 C 73.37178673537466 88.81385840782895 97.17972664562478 C 0.0 **** -0.24
32902 H 72.63904420627449 88.27685125491013 97.78293097805627 H 0.0 **** 0.06
32903 H 74.31670929552928 88.86885727371177 97.71900404473894 H 0.0 **** 0.06
32904 H 73.00739749911492 89.82212477836376 96.97919685350894 H 0.0 **** 0.06
32905 H 73.52061189117302 88.2876166275901 96.23703403940047 H 0.0 **** 0.06
32906 C 50.5738381318549 58.446220892116514 99.05980130308686 C 0.0 **** -0.24
32907 H 50.132275675014455 59.43370402229803 98.92540868960153 H 0.0 **** 0.06
32908 H 51.29109938324447 58.25837216123455 98.25971321132845 H 0.0 **** 0.06
32909 H 49.79021281041287 57.690046115086375 99.03014162251868 H 0.0 **** 0.06
32910 H 51.08404860924563 58.403918097511564 100.02237778273405 H 0.0 **** 0.06
32911 C 113.34666299528985 37.896283093943566 12.915680287046797 C 0.0 **** -0.24
32912 H 112.3280210307818 37.61496139477822 13.181763598126508 H 0.0 **** 0.06
32913 H 113.3375914032624 38.87006749255471 12.42602085598557 H 0.0 **** 0.06
32914 H 113.76442763749623 37.15253007606583 12.237619946938679 H 0.0 **** 0.06
32915 H 113.9562002698409 37.94885980155556 13.817736107145947 H 0.0 **** 0.06
32916 C 120.88213433501136 76.90322650008284 77.31604085376173 C 0.0 **** -0.24
32917 H 121.77842904202086 76.30546207097998 77.15040513143114 H 0.0 **** 0.06
32918 H 120.01471359243585 76.3776025415716 76.91689374790963 H 0.0 **** 0.06
32919 H 120.98784829241504 77.86444428447419 76.81294479574993 H 0.0 **** 0.06
32920 H 120.74760383394391 77.06645887076456 78.38588687514144 H 0.0 **** 0.06
32921 C 105.07344014020035 100.41296789365896 6.750765160730417 C 0.0 **** -0.24
32922 H 106.05943707269296 100.28711233836827 6.303535765191491 H 0.0 **** 0.06
32923 H 104.93483426996988 101.45659755156481 7.035602539325936 H 0.0 **** 0.06
32924 H 104.99297553577694 99.77988955391817 7.634020465118617 H 0.0 **** 0.06
32925 H 104.30820263796991 100.1278576429097 6.028496207296691 H 0.0 **** 0.06
32926 C 23.69838686455239 4.446533456149979 85.90268026670076 C 0.0 **** -0.24
32927 H 23.32362297088656 5.006449624800055 85.04579134678919 H 0.0 **** 0.06
32928 H 24.780443780250323 4.340866710786258 85.82197648812073 H 0.0 **** 0.06
32929 H 23.23700863656967 3.4588750316917185 85.92083804109768 H 0.0 **** 0.06
32930 H 23.452744919548763 4.97965136585573 86.82042967009612 H 0.0 **** 0.06
32931 C 102.44801993437014 29.28654425153192 95.84033484294687 C 0.0 **** -0.24
32932 H 103.1667400851542 29.972301921834315 96.29000529900722 H 0.0 **** 0.06
32933 H 102.97855294847628 28.434610491910206 95.41216381351805 H 0.0 **** 0.06
32934 H 101.8960404787409 29.802697041635497 95.05472571988207 H 0.0 **** 0.06
32935 H 101.7538699536702 28.935839205336862 96.6036004880192 H 0.0 **** 0.06
32936 C 94.23365412853143 88.91811115527388 74.5789363401565 C 0.0 **** -0.24
32937 H 94.96961394128458 89.1440241458499 75.35132046955141 H 0.0 **** 0.06
32938 H 94.6248524597402 89.2170667777771 73.60638602413175 H 0.0 **** 0.06
32939 H 93.31308931337449 89.46325810187993 74.78416027102028 H 0.0 **** 0.06
32940 H 94.02917179830162 87.8469113817597 74.57565110974093 H 0.0 **** 0.06
32941 C 61.46950979187537 82.70240306963893 29.887841348400713 C 0.0 **** -0.24
32942 H 62.514707297503335 82.89048684071903 30.137249606192142 H 0.0 **** 0.06
32943 H 60.87039494423102 83.57389562966426 30.15329165839762 H 0.0 **** 0.06
32944 H 61.11480020954683 81.83436431536546 30.443437905925038 H 0.0 **** 0.06
32945 H 61.38015708116086 82.51111291487683 28.818312061057526 H 0.0 **** 0.06
32946 C 43.62155542299939 92.77390039225429 60.1308593947345 C 0.0 **** -0.24
32947 H 43.492554141074436 92.8926229251129 61.20590229997467 H 0.0 **** 0.06
32948 H 44.33099452312899 93.51649234831086 59.76597715969078 H 0.0 **** 0.06
32949 H 42.66240670909377 92.91213948323539 59.63235023955173 H 0.0 **** 0.06
32950 H 43.99989706512633 91.7736615287204 59.91802714038391 H 0.0 **** 0.06
32951 C 20.748670840354492 54.55526810905563 83.20078708272223 C 0.0 **** -0.24
32952 H 21.10337798093923 53.63741947249227 83.66840805008398 H 0.0 **** 0.06
32953 H 21.601386647129516 55.17648322805857 82.92545042414038 H 0.0 **** 0.06
32954 H 20.114990850283675 55.099571316417595 83.90214895985574 H 0.0 **** 0.06
32955 H 20.174202230935407 54.30992777942541 82.3073596019084 H 0.0 **** 0.06
32956 C 55.88864817233883 112.80678434640453 73.42869585952445 C 0.0 **** -0.24
32957 H 56.660750075995054 112.0399000987246 73.36468866183384 H 0.0 **** 0.06
32958 H 56.15377476442404 113.52626777350741 74.2025854694802 H 0.0 **** 0.06
32959 H 54.9344056357113 112.34170072801192 73.67548139236925 H 0.0 **** 0.06
32960 H 55.80528977851711 113.31844080991367 72.46975281644518 H 0.0 **** 0.06
32961 C 79.19144347803854 114.35460542604264 3.3648387660319514 C 0.0 **** -0.24
32962 H 78.64284764449837 113.48564045055828 3.0030679445101782 H 0.0 **** 0.06
32963 H 80.01312303554312 114.5746942016144 2.6832851414297494 H 0.0 **** 0.06
32964 H 79.59005933509013 114.14438865862621 4.358194749320461 H 0.0 **** 0.06
32965 H 78.5206129664902 115.21162029573252 3.417026860526164 H 0.0 **** 0.06
32966 C 35.237668481693944 101.51056928865128 76.46324571062353 C 0.0 **** -0.24
32967 H 35.9101838029762 101.64634971385001 75.6168649034955 H 0.0 **** 0.06
32968 H 34.36205477296639 102.14763770792968 76.33706255233608 H 0.0 **** 0.06
32969 H 35.75491515409922 101.78150698969662 77.38414385780729 H 0.0 **** 0.06
32970 H 34.924783618237115 100.46826571884364 76.5160091705329 H 0.0 **** 0.06
32971 C 102.27641446163948 93.10689700049954 32.975376591026844 C 0.0 **** -0.24
32972 H 101.989224647942 92.98508000519939 34.01929003686979 H 0.0 **** 0.06
32973 H 101.45658889681835 92.78546932877265 32.332586555846206 H 0.0 **** 0.06
32974 H 103.15913042458683 92.50129558260147 32.768467931760824 H 0.0 **** 0.06
32975 H 102.50117628574688 94.15552145206004 32.78030328816391 H 0.0 **** 0.06
32976 C 59.2698635911058 87.67746645781983 36.079621031566106 C 0.0 **** -0.24
32977 H 59.986868281846085 86.85674651683541 36.06978531274056 H 0.0 **** 0.06
32978 H 59.798475852232315 88.62238981348025 35.94818391362762 H 0.0 **** 0.06
32979 H 58.740056704960665 87.68612091349644 37.032713119080434 H 0.0 **** 0.06
32980 H 58.55480216746693 87.5451106253347 35.267368714267114 H 0.0 **** 0.06
32981 C 88.68842532565745 5.353626445464556 36.65740047162422 C 0.0 **** -0.24
32982 H 87.60861656122646 5.416962727302746 36.7922569106176 H 0.0 **** 0.06
32983 H 88.90920897752031 4.793553716746999 35.74831364100152 H 0.0 **** 0.06
32984 H 89.13189978463635 4.845114030629645 37.51432422208214 H 0.0 **** 0.06
32985 H 89.10409782093856 6.358008324082277 36.57676472379653 H 0.0 **** 0.06
32986 C 97.94476261558653 88.00621661208535 82.04813982093158 C 0.0 **** -0.24
32987 H 98.52141781624387 87.58002803189831 81.22657677646156 H 0.0 **** 0.06
32988 H 96.88708862363724 88.00912994607158 81.78487011041773 H 0.0 **** 0.06
32989 H 98.2770852440639 89.02671805646293 82.23349105122267 H 0.0 **** 0.06
32990 H 98.09487133510687 87.40595902210573 82.94594322226101 H 0.0 **** 0.06
32991 C 33.95272395399964 18.14478574627941 26.165412223579864 C 0.0 **** -0.24
32992 H 33.05080205364533 17.532181138145745 26.162544846552734 H 0.0 **** 0.06
32993 H 34.54957208243403 17.90787687172235 27.04645718846527 H 0.0 **** 0.06
32994 H 33.6747696153001 19.198488457979465 26.18673551300664 H 0.0 **** 0.06
32995 H 34.53331570928899 17.94037390636788 25.265789121775327 H 0.0 **** 0.06
32996 C 81.31502501326638 52.34960972462267 54.69502292241293 C 0.0 **** -0.24
32997 H 81.63044315412237 53.39352496529233 54.69298935141569 H 0.0 **** 0.06
32998 H 81.84799125559132 51.80877480468354 53.912448754734214 H 0.0 **** 0.06
32999 H 80.24303216941732 52.29291071904464 54.51029288395881 H 0.0 **** 0.06
33000 H 81.54223284309266 51.90351269830586 55.66337862406016 H 0.0 **** 0.06
33001 C 2.0108821364263747 85.93134838727373 16.972622296166463 C 0.0 **** -0.24
33002 H 1.866081161250932 84.87373774612112 16.753567317501933 H 0.0 **** 0.06
33003 H 1.8679040869978252 86.10433976081599 18.039998543179024 H 0.0 **** 0.06
33004 H 1.2880590647447718 86.52113406863647 16.408234659470594 H 0.0 **** 0.06
33005 H 3.02032732783681 86.22573070223808 16.688011883467 H 0.0 **** 0.06
33006 C 93.44923708991152 57.73070672949359 29.695102958224822 C 0.0 **** -0.24
33007 H 93.15006390570659 56.68763184822575 29.586112252381838 H 0.0 **** 0.06
33008 H 93.05361664899343 58.310915486365786 28.861105952983394 H 0.0 **** 0.06
33009 H 94.53664439741127 57.79854893546093 29.702274880050936 H 0.0 **** 0.06
33010 H 93.05402811846179 58.12467374662526 30.631990156317443 H 0.0 **** 0.06
33011 C 94.09422660072505 106.55573699653172 72.83514712275954 C 0.0 **** -0.24
33012 H 94.36725734219766 105.66237691457526 73.39692794513559 H 0.0 **** 0.06
33013 H 93.72888739678251 106.26751152731282 71.84965687295312 H 0.0 **** 0.06
33014 H 94.96900334076025 107.19762822262678 72.72665258029463 H 0.0 **** 0.06
33015 H 93.31144437447182 107.09453445143147 73.37019671081504 H 0.0 **** 0.06
33016 C 96.5496290421262 13.463008172181901 101.81331208608896 C 0.0 **** -0.24
33017 H 97.54820853774741 13.214172261620984 101.45531719590622 H 0.0 **** 0.06
33018 H 95.8151316587149 13.199776783246929 101.05220793141939 H 0.0 **** 0.06
33019 H 96.49302115205612 14.53234069418934 102.0188972417535 H 0.0 **** 0.06
33020 H 96.34237455705812 12.90590344662133 102.72778826939572 H 0.0 **** 0.06
33021 C 112.9828259356645 18.857365347100117 106.91300868785179 C 0.0 **** -0.24
33022 H 112.90230261985204 19.310517182097175 107.90103657876156 H 0.0 **** 0.06
33023 H 113.53329895596153 17.91869118506268 106.9869008949326 H 0.0 **** 0.06
33024 H 113.51216086588664 19.536969973177754 106.2445007694616 H 0.0 **** 0.06
33025 H 111.98538295682418 18.664032130558525 106.51857305957036 H 0.0 **** 0.06
33026 C 10.232200268566714 20.484495688794937 72.43127327563221 C 0.0 **** -0.24
33027 H 10.925681947213889 20.43677616857991 73.27071577081195 H 0.0 **** 0.06
33028 H 9.80343345980907 21.485643776805205 72.37249984149213 H 0.0 **** 0.06
33029 H 9.435163852529001 19.7556376654083 72.57676766423823 H 0.0 **** 0.06
33030 H 10.764173872962829 20.26282799831904 71.50696805607633 H 0.0 **** 0.06
33031 C 121.90679923924075 51.629857176579264 75.30960773141788 C 0.0 **** -0.24
33032 H 122.5028917368847 52.49005970298708 75.00501119127642 H 0.0 **** 0.06
33033 H 122.38870336489263 50.71412568778419 74.96698116239588 H 0.0 **** 0.06
33034 H 120.91179092161465 51.70324298794077 74.86824643777993 H 0.0 **** 0.06
33035 H 121.82170636253952 51.612143081047634 76.3952679079394 H 0.0 **** 0.06
33036 C 118.73454043136056 43.36571648974077 14.637659861222943 C 0.0 **** -0.24
33037 H 119.7687239554206 43.17111792252836 14.923611956265319 H 0.0 **** 0.06
33038 H 118.44084556975531 42.67539423952056 13.84597286192107 H 0.0 **** 0.06
33039 H 118.6445738615019 44.390390436785644 14.278637628345734 H 0.0 **** 0.06
33040 H 118.08608816551191 43.22479420096202 15.501826061965716 H 0.0 **** 0.06
33041 C 36.78712586155915 27.431596640137826 10.317944032973173 C 0.0 **** -0.24
33042 H 37.046975236800975 26.536312886050837 9.754620043582804 H 0.0 **** 0.06
33043 H 36.3260402910918 27.14475028895386 11.263585100729301 H 0.0 **** 0.06
33044 H 36.08614210753608 28.033983727523463 9.739272852965257 H 0.0 **** 0.06
33045 H 37.68814585562207 28.012069913742437 10.514462272924106 H 0.0 **** 0.06
33046 C 37.09845979085384 3.0670162325897934 94.82403856943476 C 0.0 **** -0.24
33047 H 37.25380784425991 4.0442714033043785 94.36709107449255 H 0.0 **** 0.06
33048 H 36.98595691788765 3.1848812186865985 95.90177121403646 H 0.0 **** 0.06
33049 H 37.95651716311036 2.427957949269242 94.61450626135502 H 0.0 **** 0.06
33050 H 36.19754736730923 2.6127470484516664 94.41144915179251 H 0.0 **** 0.06
33051 C 83.29198099175633 67.21401286550937 64.31799308537629 C 0.0 **** -0.24
33052 H 82.56707504435494 66.51764238026061 64.74016396435253 H 0.0 **** 0.06
33053 H 82.81820040274724 67.7976424551158 63.528518464768936 H 0.0 **** 0.06
33054 H 84.13283236753554 66.65756571466272 63.90468302455784 H 0.0 **** 0.06
33055 H 83.64852853379404 67.88372474640278 65.10035843114353 H 0.0 **** 0.06
33056 C 3.69109211035115 76.79594897872198 21.030889064822873 C 0.0 **** -0.24
33057 H 3.8161154956526673 77.79637972542187 21.444912217325964 H 0.0 **** 0.06
33058 H 2.9122529431043347 76.81366281971398 20.267580113083852 H 0.0 **** 0.06
33059 H 3.4051365931680238 76.1072110320138 21.825787916404238 H 0.0 **** 0.06
33060 H 4.630094393324157 76.46654381881669 20.58591528204755 H 0.0 **** 0.06
33061 C 115.48866510005678 112.66619244802718 46.331934670879804 C 0.0 **** -0.24
33062 H 115.22274789461636 113.64824880789183 45.939237433459795 H 0.0 **** 0.06
33063 H 114.57982587461669 112.09261989815636 46.51952094404599 H 0.0 **** 0.06
33064 H 116.04251990065677 112.78561354439037 47.26258020805054 H 0.0 **** 0.06
33065 H 116.10643521111973 112.13985399060104 45.60508078910284 H 0.0 **** 0.06
33066 C 87.93843879212417 41.67982121568795 113.99180411096498 C 0.0 **** -0.24
33067 H 88.41609492685618 42.65864987765974 113.92999892830781 H 0.0 **** 0.06
33068 H 88.5470442595566 41.01779721356937 114.6081159921668 H 0.0 **** 0.06
33069 H 87.84186927295784 41.25958610475848 112.99090128521779 H 0.0 **** 0.06
33070 H 86.9499097017914 41.786015225026034 114.43830356486606 H 0.0 **** 0.06
33071 C 13.253211492621968 67.90850967885977 33.356165835614206 C 0.0 **** -0.24
33072 H 13.56053271871625 68.08376222692742 34.38734280200026 H 0.0 **** 0.06
33073 H 13.39252763499611 68.82104236067259 32.77686988098537 H 0.0 **** 0.06
33074 H 12.202853085562602 67.62090466160011 33.33452817023283 H 0.0 **** 0.06
33075 H 13.858081812554936 67.10954494188124 32.92820332249585 H 0.0 **** 0.06
33076 C 17.179006994177087 7.063320229786189 64.45670806095137 C 0.0 **** -0.24
33077 H 16.166664295290843 6.865679310879944 64.10426227069519 H 0.0 **** 0.06
33078 H 17.183384547644465 7.974152074770714 65.05556605994133 H 0.0 **** 0.06
33079 H 17.842480181756372 7.187490704616074 63.60077714283108 H 0.0 **** 0.06
33080 H 17.5217085798773 6.22599905334744 65.06362033870988 H 0.0 **** 0.06
33081 C 64.64520780687829 5.77149570764939 40.558568631458485 C 0.0 **** -0.24
33082 H 64.76104412074343 6.252587446109285 41.52996629200993 H 0.0 **** 0.06
33083 H 63.87648880063303 6.291387064694238 39.98482923400965 H 0.0 **** 0.06
33084 H 64.35071160837524 4.731783905826028 40.700917004626746 H 0.0 **** 0.06
33085 H 65.59044896491865 5.810463496547346 40.01795108935971 H 0.0 **** 0.06
33086 C 51.4108445477066 93.92693683097278 44.957212580477915 C 0.0 **** -0.24
33087 H 51.154969977678235 94.92990245886935 45.30084892249721 H 0.0 **** 0.06
33088 H 50.50458271666636 93.32520736980578 44.88767221245013 H 0.0 **** 0.06
33089 H 52.10110222179826 93.46644620378848 45.664167630606016 H 0.0 **** 0.06
33090 H 51.8822139933346 93.98891952474904 43.976707270975226 H 0.0 **** 0.06
33091 C 101.52454084487647 114.60822334905541 12.138488739186233 C 0.0 **** -0.24
33092 H 101.49549223265004 113.86969614246598 12.938930735707256 H 0.0 **** 0.06
33093 H 102.4673023314337 114.52129093214126 11.597552247652548 H 0.0 **** 0.06
33094 H 101.4391760854194 115.60832614035772 12.563642804886925 H 0.0 **** 0.06
33095 H 100.6939913973437 114.43382643908043 11.453522966396829 H 0.0 **** 0.06
33096 C 94.71083418154586 7.999192951473436 35.293760446854606 C 0.0 **** -0.24
33097 H 95.08144719394289 8.545697857954604 34.42652801555141 H 0.0 **** 0.06
33098 H 95.00236175196983 8.522072462021711 36.20457897637817 H 0.0 **** 0.06
33099 H 95.13454760552196 6.994960244262256 35.298588263339695 H 0.0 **** 0.06
33100 H 93.62338729905906 7.933756561470354 35.24472857980447 H 0.0 **** 0.06
33101 C 48.097281279343804 5.717719724898046 69.41842960039384 C 0.0 **** -0.24
33102 H 48.20496766714325 4.677175102798202 69.10956178793361 H 0.0 **** 0.06
33103 H 49.053073571172035 6.229202896746301 69.31025058180643 H 0.0 **** 0.06
33104 H 47.77786314760914 5.756016093742744 70.45999868891704 H 0.0 **** 0.06
33105 H 47.349834588909516 6.205373825610977 68.79170343002761 H 0.0 **** 0.06
33106 C 31.624568920672694 119.31181174644999 52.60162083457182 C 0.0 **** -0.24
33107 H 31.044560972999825 118.39055447628209 52.654663468666115 H 0.0 **** 0.06
33108 H 32.36721635676297 119.22753206842154 51.8075418165204 H 0.0 **** 0.06
33109 H 32.127062848831635 119.47983706088988 53.55319109047748 H 0.0 **** 0.06
33110 H 30.95915259035013 120.14874236301588 52.38872418870724 H 0.0 **** 0.06
33111 C 46.4420819376993 108.94653708575424 74.18663260029803 C 0.0 **** -0.24
33112 H 45.379895814711595 109.08329930228754 74.38788221658757 H 0.0 **** 0.06
33113 H 46.9757239847142 109.87065613741007 74.40855791815784 H 0.0 **** 0.06
33114 H 46.58256271927349 108.6894679610067 73.13670197116255 H 0.0 **** 0.06
33115 H 46.8307730980083 108.14344591680239 74.81234614009838 H 0.0 **** 0.06
33116 C 93.92411448092528 97.85226612553444 2.8267288919708164 C 0.0 **** -0.24
33117 H 93.95868964321244 98.94210224697576 2.8003740882557224 H 0.0 **** 0.06
33118 H 94.40910976001001 97.4956554784705 3.735589799780655 H 0.0 **** 0.06
33119 H 94.4419642713049 97.45077846515824 1.95566404886614 H 0.0 **** 0.06
33120 H 92.88486972888839 97.52207024636402 2.8158297420838494 H 0.0 **** 0.06
33121 C 30.365944893049203 44.60850144126552 118.03007586885286 C 0.0 **** -0.24
33122 H 31.116892511333504 44.89133028043386 117.29330985697032 H 0.0 **** 0.06
33123 H 30.546182587333277 45.15020270894112 118.95845068610697 H 0.0 **** 0.06
33124 H 30.42601624685875 43.53640767708791 118.21621311813107 H 0.0 **** 0.06
33125 H 29.374506844810014 44.85638318524548 117.6506368634129 H 0.0 **** 0.06
33126 C 10.897304426367896 94.6993796796966 68.1357366792364 C 0.0 **** -0.24
33127 H 11.003450659254497 95.78361170936086 68.09466829528569 H 0.0 **** 0.06
33128 H 10.586352219000617 94.32768821007336 67.1597797938154 H 0.0 **** 0.06
33129 H 10.145949021252164 94.43757335360021 68.88146335032586 H 0.0 **** 0.06
33130 H 11.852810882350582 94.25093478642798 68.40992158052856 H 0.0 **** 0.06
33131 C 57.44314742597777 64.48181222314908 77.6230453561013 C 0.0 **** -0.24
33132 H 57.69712422924715 63.78333576417185 76.82465934832487 H 0.0 **** 0.06
33133 H 56.36715968352809 64.65286298141908 77.62674201753495 H 0.0 **** 0.06
33134 H 57.96142334922541 65.42633688450965 77.45657326489464 H 0.0 **** 0.06
33135 H 57.74842397352046 64.06346020659392 78.58174629218988 H 0.0 **** 0.06
33136 C 107.57602999664134 79.43182407150505 25.962912965739555 C 0.0 **** -0.24
33137 H 107.39104611089725 80.28367944235924 25.30794645000961 H 0.0 **** 0.06
33138 H 106.9614609881949 78.58921051864667 25.644433616143814 H 0.0 **** 0.06
33139 H 107.32216106117394 79.70085952524732 26.98821447929803 H 0.0 **** 0.06
33140 H 108.62884378937738 79.15525109434464 25.908883357966523 H 0.0 **** 0.06
33141 C 31.541831328657878 120.57774719666955 36.84783269655863 C 0.0 **** -0.24
33142 H 32.09416278940034 121.24125390232584 37.514023037746306 H 0.0 **** 0.06
33143 H 30.638058806448186 120.23048058850722 37.348697794884416 H 0.0 **** 0.06
33144 H 32.16571734990882 119.72310890391495 36.58811886575418 H 0.0 **** 0.06
33145 H 31.269963320025283 121.11849940486124 35.94084615436699 H 0.0 **** 0.06
33146 C 25.64737822814601 117.80770261349738 104.30453304788091 C 0.0 **** -0.24
33147 H 24.620740497570267 117.64562221049525 104.633813553218 H 0.0 **** 0.06
33148 H 25.64401201222273 118.24119696768187 103.30441254306513 H 0.0 **** 0.06
33149 H 26.177703959621283 116.85594904552715 104.28674446692861 H 0.0 **** 0.06
33150 H 26.146090459230948 118.48915265736838 104.99484510532133 H 0.0 **** 0.06
33151 C 44.25494186246594 46.528826648051165 92.34131886676255 C 0.0 **** -0.24
33152 H 44.203900603263236 45.44265306057383 92.41350894430823 H 0.0 **** 0.06
33153 H 43.433221266731394 46.89009984603295 91.72192019426811 H 0.0 **** 0.06
33154 H 45.20397049204545 46.81883575732198 91.89183359016403 H 0.0 **** 0.06
33155 H 44.17645438494831 46.96278474973573 93.3384576858281 H 0.0 **** 0.06
33156 C 64.36592252022064 99.701589912526 67.15108944335216 C 0.0 **** -0.24
33157 H 64.54610250247822 99.77874394444655 66.07855964400679 H 0.0 **** 0.06
33158 H 64.32762728486922 98.65097792600062 67.4386127051819 H 0.0 **** 0.06
33159 H 63.41659607527885 100.17988280367382 67.39511607105473 H 0.0 **** 0.06
33160 H 65.17137939604633 100.1977227364882 67.69171694925049 H 0.0 **** 0.06
33161 C 42.969089670173105 115.10354149261055 50.35270789674894 C 0.0 **** -0.24
33162 H 42.85957324469288 115.69160822714355 51.26510994237162 H 0.0 **** 0.06
33163 H 42.51621989593772 115.64099991594713 49.51901480826308 H 0.0 **** 0.06
33164 H 42.4723461667933 114.1414851119663 50.479306205503406 H 0.0 **** 0.06
33165 H 44.028070146631336 114.94243840089351 50.14972051304193 H 0.0 **** 0.06
33166 C 123.9198444009701 53.158017117285965 8.099377234959377 C 0.0 **** -0.24
33167 H 123.92135201356506 52.12245981374201 8.43908370832531 H 0.0 **** 0.06
33168 H 124.31432647443899 53.79809667434617 8.88860329028908 H 0.0 **** 0.06
33169 H 122.89968012966715 53.46038333262439 7.861628902333148 H 0.0 **** 0.06
33170 H 124.54323715610491 53.24964756950317 7.210682141039449 H 0.0 **** 0.06
33171 C 116.70574703533343 120.57071130635067 11.14558370498915 C 0.0 **** -0.24
33172 H 117.56608475699207 120.57659162584937 10.47624512069578 H 0.0 **** 0.06
33173 H 116.8622252184529 121.294102416763 11.945319628100066 H 0.0 **** 0.06
33174 H 116.585303618562 119.5750199801873 11.573011944874054 H 0.0 **** 0.06
33175 H 115.80847062812643 120.83578841522511 10.585919601367067 H 0.0 **** 0.06
33176 C 66.0737431696266 88.99292086878665 41.68532528821038 C 0.0 **** -0.24
33177 H 67.13988288169782 89.12309718277584 41.87255236490603 H 0.0 **** 0.06
33178 H 65.60420100701776 89.96923351383862 41.57067619791118 H 0.0 **** 0.06
33179 H 65.61960866596701 88.46715314491689 42.52489471975741 H 0.0 **** 0.06
33180 H 65.93368434474081 88.41192671607052 40.77355939292434 H 0.0 **** 0.06
33181 C 18.967684179881047 23.157116372828966 73.18492711276383 C 0.0 **** -0.24
33182 H 19.338644816485044 23.679105649930598 74.06672815829438 H 0.0 **** 0.06
33183 H 18.16147440235588 22.482211223292417 73.47459348844859 H 0.0 **** 0.06
33184 H 19.77746682770784 22.584190360908835 72.73362064039168 H 0.0 **** 0.06
33185 H 18.59203191448057 23.88421174821302 72.46434509321188 H 0.0 **** 0.06
33186 C 100.3970292545722 115.56976687989774 4.707608606883969 C 0.0 **** -0.24
33187 H 100.33273062017417 114.96935168539213 5.615513905348099 H 0.0 **** 0.06
33188 H 101.44097109666029 115.8051112359293 4.501880289532789 H 0.0 **** 0.06
33189 H 99.83575210275956 116.49416019036101 4.844727847148739 H 0.0 **** 0.06
33190 H 99.97720887088889 115.01068487023794 3.872290836678115 H 0.0 **** 0.06
33191 C 44.82077828390095 100.41952914849054 81.37469625283262 C 0.0 **** -0.24
33192 H 43.926353505884975 100.84817234614513 81.8287613685813 H 0.0 **** 0.06
33193 H 45.688853891035876 101.02002325925082 81.64779019983462 H 0.0 **** 0.06
33194 H 44.70949251907413 100.41137831943064 80.29080063722438 H 0.0 **** 0.06
33195 H 44.95706740730989 99.39957206451038 81.73390861202995 H 0.0 **** 0.06
33196 C 100.27785088258754 72.98286806654173 47.18334722916464 C 0.0 **** -0.24
33197 H 99.78613033434155 73.87359187201636 47.573516006378554 H 0.0 **** 0.06
33198 H 100.79934234000001 73.23264406207468 46.258548657077284 H 0.0 **** 0.06
33199 H 99.53161556707119 72.21429256266109 46.98388240505727 H 0.0 **** 0.06
33200 H 100.99464578545515 72.61370243685391 47.91631003162996 H 0.0 **** 0.06
33201 C 43.72760521186399 66.97852166991467 87.2330102747585 C 0.0 **** -0.24
33202 H 42.99713126937746 67.72652176401809 86.92450355722212 H 0.0 **** 0.06
33203 H 44.37697311470109 66.73661278242523 86.39111291072749 H 0.0 **** 0.06
33204 H 43.20891366285551 66.07742950536036 87.56169971109512 H 0.0 **** 0.06
33205 H 44.32670476673374 67.37188104268148 88.05337650793524 H 0.0 **** 0.06
33206 C 60.2358240392812 61.42389311519915 36.065845316058535 C 0.0 **** -0.24
33207 H 59.52960713165383 62.244381673582694 35.93809195716209 H 0.0 **** 0.06
33208 H 60.879006707809225 61.62792142644503 36.92156967701544 H 0.0 **** 0.06
33209 H 60.84592173235899 61.32725921082812 35.1671126174686 H 0.0 **** 0.06
33210 H 59.68842962021898 60.495988338348525 36.2349069692828 H 0.0 **** 0.06
33211 C 1.0190288618447454 72.4715817373957 118.69987613762527 C 0.0 **** -0.24
33212 H 0.6649214302691888 73.44443365536455 119.04183785406263 H 0.0 **** 0.06
33213 H 0.18000897217586953 71.8995296968821 118.30278945160279 H 0.0 **** 0.06
33214 H 1.4638598315993505 71.93221061421735 119.53693167913343 H 0.0 **** 0.06
33215 H 1.7666873500077713 72.61070578133405 117.91848184746863 H 0.0 **** 0.06
33216 C 26.072559112198576 84.6394175160039 50.08978064446427 C 0.0 **** -0.24
33217 H 25.211717558414023 84.09363969493367 49.70403970064274 H 0.0 **** 0.06
33218 H 26.45031407193511 85.31374856077842 49.31989906350162 H 0.0 **** 0.06
33219 H 26.854558698546953 83.93265553032262 50.36911181181205 H 0.0 **** 0.06
33220 H 25.774721514236433 85.21713186934242 50.96445976692701 H 0.0 **** 0.06
33221 C 105.79709024973675 47.95206076560308 118.85799401404921 C 0.0 **** -0.24
33222 H 106.25426523998937 46.9856185945859 118.6454304451829 H 0.0 **** 0.06
33223 H 105.71725725061782 48.52564704281343 117.93498797957733 H 0.0 **** 0.06
33224 H 106.41303226504908 48.49574862691159 119.57322304462778 H 0.0 **** 0.06
33225 H 104.80294848103148 47.79821619296595 119.27724415383595 H 0.0 **** 0.06
33226 C 10.134784775797272 25.733364669022876 78.36839307331235 C 0.0 **** -0.24
33227 H 9.178802383904014 25.707206666568702 78.89194838484173 H 0.0 **** 0.06
33228 H 10.201879318472749 24.879063139104005 77.69419728076241 H 0.0 **** 0.06
33229 H 10.947175656154542 25.689812959556498 79.09373368806098 H 0.0 **** 0.06
33230 H 10.20852070224177 26.656762480114395 77.7937208050634 H 0.0 **** 0.06
33231 C 64.07123430840369 49.164228801689944 14.306239456306372 C 0.0 **** -0.24
33232 H 64.57673703073101 49.87595829928415 14.959836342944527 H 0.0 **** 0.06
33233 H 63.27252302099026 49.67280227892883 13.765737802047852 H 0.0 **** 0.06
33234 H 63.648492548222805 48.358576963265875 14.90578193193707 H 0.0 **** 0.06
33235 H 64.78684205318524 48.75256621765408 13.595589684520064 H 0.0 **** 0.06
33236 C 74.05798263793743 104.68086659544909 68.69666605866001 C 0.0 **** -0.24
33237 H 73.45698080951058 104.25848293156639 69.5028413660922 H 0.0 **** 0.06
33238 H 75.10943475858238 104.45233657326347 68.86961735782974 H 0.0 **** 0.06
33239 H 73.91991853962188 105.76236134511328 68.67020500313293 H 0.0 **** 0.06
33240 H 73.74325334817713 104.25077230565103 67.74550828146049 H 0.0 **** 0.06
33241 C 43.51642297924924 101.22528598473039 21.066344266788946 C 0.0 **** -0.24
33242 H 44.02639211804622 101.68544329616195 20.220519588360702 H 0.0 **** 0.06
33243 H 42.46086221842127 101.49552655711034 21.04418122731545 H 0.0 **** 0.06
33244 H 43.96319971854669 101.57772727459113 21.995874995729395 H 0.0 **** 0.06
33245 H 43.61572708162085 100.14047459755238 21.00343327922434 H 0.0 **** 0.06
33246 C 13.238794208912708 41.477425158550886 13.793536457601647 C 0.0 **** -0.24
33247 H 13.348838227699812 41.07617268274268 12.78598522774655 H 0.0 **** 0.06
33248 H 12.396710887272931 40.991219646270906 14.287963080869474 H 0.0 **** 0.06
33249 H 13.057107677331992 42.5514245769557 13.738974259494341 H 0.0 **** 0.06
33250 H 14.150318085004326 41.29142413846503 14.360296084866434 H 0.0 **** 0.06
33251 C 123.9292287250745 30.978657758616976 62.019037311422125 C 0.0 **** -0.24
33252 H 124.68606167306284 30.32803755886394 61.58195276551092 H 0.0 **** 0.06
33253 H 123.45805961825559 31.56812558755908 61.232107776980115 H 0.0 **** 0.06
33254 H 124.39746531061589 31.644931309911556 62.74319940217222 H 0.0 **** 0.06
33255 H 123.1738273544547 30.371600762381433 62.51889962087441 H 0.0 **** 0.06
33256 C 96.79359586470483 103.49336538047339 14.689566539683558 C 0.0 **** -0.24
33257 H 96.67231158775158 103.88133802010333 15.701362027052099 H 0.0 **** 0.06
33258 H 97.71998224862253 103.87799035759292 14.263035650671576 H 0.0 **** 0.06
33259 H 95.95139180520428 103.8122698389916 14.076165422260054 H 0.0 **** 0.06
33260 H 96.83090860145583 102.40436991099926 14.719337983832574 H 0.0 **** 0.06
33261 C 107.12920382223989 50.91329439128921 68.37344093438651 C 0.0 **** -0.24
33262 H 107.39616168350341 51.72638486457066 69.04820464669521 H 0.0 **** 0.06
33263 H 106.21587522646679 51.17101983436919 67.83661580909855 H 0.0 **** 0.06
33264 H 106.967560517637 50.001978603105044 68.95012866779808 H 0.0 **** 0.06
33265 H 107.93813710682758 50.75395475611842 67.66084673055293 H 0.0 **** 0.06
33266 C 72.85556521474857 10.413670909054453 30.333683362918322 C 0.0 **** -0.24
33267 H 72.95161210292207 9.41910017556215 30.76875661654131 H 0.0 **** 0.06
33268 H 73.71417155399185 11.020774168956976 30.61990962265847 H 0.0 **** 0.06
33269 H 71.94153071696468 10.882392424760038 30.69859129121096 H 0.0 **** 0.06
33270 H 72.813239484069 10.332128285753566 29.247530959397892 H 0.0 **** 0.06
33271 C 89.99442922544128 37.77153067221593 50.30363684276264 C 0.0 **** -0.24
33272 H 90.54229696204476 38.69678806287459 50.48236125817152 H 0.0 **** 0.06
33273 H 90.64556297418773 37.05628318587489 49.79879062254574 H 0.0 **** 0.06
33274 H 89.12666720042303 37.978810998200984 49.67671604242318 H 0.0 **** 0.06
33275 H 89.66461199930573 37.35436732354083 51.254958570499355 H 0.0 **** 0.06
33276 C 51.56688608529822 123.71662143840919 52.014973026373696 C 0.0 **** -0.24
33277 H 51.0837881257315 122.79313157501959 51.695505422242434 H 0.0 **** 0.06
33278 H 52.0641201795511 123.55482322158318 52.970861748034935 H 0.0 **** 0.06
33279 H 50.816450227386895 124.50040358512186 52.122997709828894 H 0.0 **** 0.06
33280 H 52.3026800715534 124.01919338010634 51.2692591490825 H 0.0 **** 0.06
33281 C 60.51123600533728 0.047246530475895554 29.722850401314247 C 0.0 **** -0.24
33282 H 60.768426025750216 0.13714388411183798 28.668467477066912 H 0.0 **** 0.06
33283 H 61.39870785084423 -0.23530382729390809 30.290490083783737 H 0.0 **** 0.06
33284 H 59.74284272060524 -0.7160257484232897 29.846769365102233 H 0.0 **** 0.06
33285 H 60.13499487793763 1.003023576039089 30.088119591098973 H 0.0 **** 0.06
33286 C 31.490608074552526 60.036804187082396 4.038697295635075 C 0.0 **** -0.24
33287 H 30.63373737717916 59.36930724086778 3.944076073702689 H 0.0 **** 0.06
33288 H 31.14043888569565 61.062187621207755 4.15581279475046 H 0.0 **** 0.06
33289 H 32.10780592648829 59.963273735829375 3.143071362601404 H 0.0 **** 0.06
33290 H 32.079424133841165 59.751723532265714 4.910272507363345 H 0.0 **** 0.06
33291 C 34.14379863827642 3.579128273606244 23.13960418243488 C 0.0 **** -0.24
33292 H 33.70713757013894 2.650413846723154 23.506762630300187 H 0.0 **** 0.06
33293 H 34.78300796496485 3.3649526627559254 22.282136959945106 H 0.0 **** 0.06
33294 H 34.73810331450859 4.038069155490945 23.929779435864127 H 0.0 **** 0.06
33295 H 33.34833012162471 4.261066647605787 22.839536545644066 H 0.0 **** 0.06
33296 C 102.97723512153227 114.28658387224394 66.41373421532916 C 0.0 **** -0.24
33297 H 103.52764217878935 113.35768387345712 66.26845687150279 H 0.0 **** 0.06
33298 H 103.38893138256292 114.82332018053035 67.26871553460109 H 0.0 **** 0.06
33299 H 101.92631861375749 114.06000536630961 66.59736279539288 H 0.0 **** 0.06
33300 H 103.06402329586298 114.90364999572063 65.51935737918404 H 0.0 **** 0.06
33301 C 95.72836603987977 67.09045329120252 39.200216388369256 C 0.0 **** -0.24
33302 H 94.93355457130409 66.84388092431209 38.497187631441875 H 0.0 **** 0.06
33303 H 95.53083287900563 68.06708126643301 39.64366675620738 H 0.0 **** 0.06
33304 H 96.68288757589033 67.1163215997814 38.675891012632064 H 0.0 **** 0.06
33305 H 95.76474495344195 66.33624268259322 39.98611499698194 H 0.0 **** 0.06
33306 C 37.0065663732577 108.22077356904656 31.201609916033824 C 0.0 **** -0.24
33307 H 36.24026399032198 108.83535994270063 30.7298505265195 H 0.0 **** 0.06
33308 H 36.63195343376478 107.20433618665038 31.324889805494557 H 0.0 **** 0.06
33309 H 37.25656415665267 108.63642841715142 32.17782191705405 H 0.0 **** 0.06
33310 H 37.898194460310464 108.20637216193087 30.57424901689297 H 0.0 **** 0.06
33311 C 45.82936204039105 92.0949597433156 35.2989760794423 C 0.0 **** -0.24
33312 H 45.40990552273357 91.22187564321354 34.79926808306911 H 0.0 **** 0.06
33313 H 45.937999485997665 91.88739315925346 36.36381727023115 H 0.0 **** 0.06
33314 H 45.16300198196609 92.94688778772417 35.160930333003705 H 0.0 **** 0.06
33315 H 46.8050967049285 92.32501795610949 34.87152810780751 H 0.0 **** 0.06
33316 C 42.609088978030115 103.78252439502214 87.3982727319805 C 0.0 **** -0.24
33317 H 42.533888338894215 104.04420770714623 88.45383297558142 H 0.0 **** 0.06
33318 H 41.82791619981013 103.0655901933595 87.14487153605346 H 0.0 **** 0.06
33319 H 43.586089119863146 103.33969742388447 87.20334522904405 H 0.0 **** 0.06
33320 H 42.48902894422352 104.68011185792159 86.79224055330575 H 0.0 **** 0.06
33321 C 100.07705111996822 21.73709166725604 20.862190447440064 C 0.0 **** -0.24
33322 H 100.95973293289818 22.17394179100495 21.328474111248696 H 0.0 **** 0.06
33323 H 100.13966320363191 21.860408900500147 19.780121874858523 H 0.0 **** 0.06
33324 H 99.18381641864471 22.238117033857463 21.23347468456778 H 0.0 **** 0.06
33325 H 100.02629446671898 20.675416253734113 21.104227214925473 H 0.0 **** 0.06
33326 C 11.077497573623347 28.94273876850417 38.10254043209085 C 0.0 **** -0.24
33327 H 10.672525684653507 28.518063090544274 37.18348760803167 H 0.0 **** 0.06
33328 H 10.63395671266531 29.923249663790273 38.27533970844195 H 0.0 **** 0.06
33329 H 12.158954828741656 29.04321187149253 38.00877964142808 H 0.0 **** 0.06
33330 H 10.84518012571499 28.28473329849271 38.93943592785922 H 0.0 **** 0.06
33331 C 17.192770776839687 81.03603305781826 102.10085647748733 C 0.0 **** -0.24
33332 H 17.319917619117373 81.04550525437001 101.0187286570771 H 0.0 **** 0.06
33333 H 17.700028055100297 80.16514207876254 102.51768346625494 H 0.0 **** 0.06
33334 H 16.131414637640866 80.98796935269623 102.34228074694349 H 0.0 **** 0.06
33335 H 17.621513609181818 81.94384445835746 102.52470518202429 H 0.0 **** 0.06
33336 C 92.47772188108588 30.326130126987096 94.90104151486679 C 0.0 **** -0.24
33337 H 92.21250057086566 29.27706612886095 94.76498211410808 H 0.0 **** 0.06
33338 H 92.1936878256821 30.890163961589025 94.01170564860809 H 0.0 **** 0.06
33339 H 93.55300375309436 30.41157569116612 95.05775034574503 H 0.0 **** 0.06
33340 H 91.95046867947254 30.72491541070201 95.76776411927142 H 0.0 **** 0.06
33341 C 102.299568130538 27.3202513195871 73.22116352315066 C 0.0 **** -0.24
33342 H 101.94977879452091 28.219786249648678 73.72750335566121 H 0.0 **** 0.06
33343 H 102.19404325879364 27.44433794145027 72.14422869536713 H 0.0 **** 0.06
33344 H 101.7068060006495 26.465447521960897 73.5491701003723 H 0.0 **** 0.06
33345 H 103.3482820384612 27.14981430108068 73.46774850302717 H 0.0 **** 0.06
33346 C 40.91877386781482 116.45491817564769 83.33573614969119 C 0.0 **** -0.24
33347 H 40.18537940717817 116.6394807878452 84.12071635042646 H 0.0 **** 0.06
33348 H 41.67309599020906 115.7567172126088 83.7014387224853 H 0.0 **** 0.06
33349 H 41.396583589889524 117.3929870463121 83.05598932428293 H 0.0 **** 0.06
33350 H 40.41975583429669 116.02713818860732 82.46610519284323 H 0.0 **** 0.06
33351 C 65.86548806768482 36.39155550583706 98.50618005278696 C 0.0 **** -0.24
33352 H 66.84222793996625 35.95846458690126 98.29014025682923 H 0.0 **** 0.06
33353 H 65.59370071424341 36.17588021908125 99.539201098482 H 0.0 **** 0.06
33354 H 65.12095312630879 35.9608537279986 97.8367075717971 H 0.0 **** 0.06
33355 H 65.90628873193302 37.47108014791556 98.35795519452873 H 0.0 **** 0.06
33356 C 2.5610396280567045 91.6583408439597 9.245611704046183 C 0.0 **** -0.24
33357 H 3.4894963519958253 91.60054373753354 8.677621997261411 H 0.0 **** 0.06
33358 H 2.274075348615753 92.70309833920584 9.366264108685925 H 0.0 **** 0.06
33359 H 2.706780024194842 91.2049073533139 10.225874166359347 H 0.0 **** 0.06
33360 H 1.775352097530316 91.12476849300049 8.711417621026158 H 0.0 **** 0.06
33361 C 104.26817400350055 122.45941969307358 15.575333793427959 C 0.0 **** -0.24
33362 H 104.95477339984416 121.61292313961378 15.549438038584015 H 0.0 **** 0.06
33363 H 104.65529549687295 123.25865083553079 14.942300377999729 H 0.0 **** 0.06
33364 H 104.1751260788304 122.82055672339285 16.599337119801987 H 0.0 **** 0.06
33365 H 103.29021391187467 122.1466833091185 15.20966630681562 H 0.0 **** 0.06
33366 C 69.68476184617222 82.97645276668905 57.13542862634105 C 0.0 **** -0.24
33367 H 70.33761644468765 83.66513359576422 56.59888849682454 H 0.0 **** 0.06
33368 H 69.00388083295715 83.54163641988438 57.77074753351502 H 0.0 **** 0.06
33369 H 70.28830158697787 82.30854120381625 57.75078436263129 H 0.0 **** 0.06
33370 H 69.11036755000092 82.38909181644422 56.41850739191938 H 0.0 **** 0.06
33371 C 107.84900021406236 20.80590528734544 17.519822693893218 C 0.0 **** -0.24
33372 H 108.6671184319892 21.37734301932889 17.9581960543141 H 0.0 **** 0.06
33373 H 107.70178769566564 19.887522283358095 18.08846744980241 H 0.0 **** 0.06
33374 H 108.0912795249011 20.559821404512775 16.48589417899683 H 0.0 **** 0.06
33375 H 106.93562266251965 21.400852697795074 17.548244232771538 H 0.0 **** 0.06
33376 C 1.9381365921737626 75.46619828817902 15.522363652968068 C 0.0 **** -0.24
33377 H 2.293922444982286 74.47174101478777 15.789948804457751 H 0.0 **** 0.06
33378 H 1.6225199130756636 75.99303250700851 16.42396036378865 H 0.0 **** 0.06
33379 H 1.0945008320386762 75.3786348693732 14.838100522086634 H 0.0 **** 0.06
33380 H 2.7425194648484847 76.02191289445713 15.039654404935632 H 0.0 **** 0.06
33381 C 76.52928594920564 6.0934188968072185 112.82514472885967 C 0.0 **** -0.24
33382 H 76.75581345657262 5.1234536800150465 113.26780201521436 H 0.0 **** 0.06
33383 H 77.07492913028499 6.872193174802948 113.35818587468701 H 0.0 **** 0.06
33384 H 75.45915716528677 6.284251840242224 112.89756580848211 H 0.0 **** 0.06
33385 H 76.82858425047168 6.092761168611233 111.77661010868691 H 0.0 **** 0.06
33386 C 7.15979259955995 51.446409981261866 71.19694003346115 C 0.0 **** -0.24
33387 H 6.490368697245515 50.93940255888907 70.50292292107166 H 0.0 **** 0.06
33388 H 6.798192659214493 52.459858540067785 71.37545136211892 H 0.0 **** 0.06
33389 H 8.161594109915313 51.48815850290151 70.77019483144542 H 0.0 **** 0.06
33390 H 7.188544398048691 50.899100529212035 72.13912865808857 H 0.0 **** 0.06
33391 C 33.928925154125636 48.29551406417123 110.73229124849496 C 0.0 **** -0.24
33392 H 35.007054673906566 48.40138250955427 110.85250070563353 H 0.0 **** 0.06
33393 H 33.563001958762015 47.51797217043517 111.40334084570074 H 0.0 **** 0.06
33394 H 33.70376838553534 48.023168612476695 109.70098086301157 H 0.0 **** 0.06
33395 H 33.4431619632806 49.24136168002079 110.97230608625952 H 0.0 **** 0.06
33396 C 33.603118670835485 88.83959571225336 11.325670887290784 C 0.0 **** -0.24
33397 H 34.610234922000444 89.15734551152806 11.593178942105737 H 0.0 **** 0.06
33398 H 33.05622705150728 89.68383808655727 10.90421964476721 H 0.0 **** 0.06
33399 H 33.08741286883449 88.47977120667366 12.21515302748162 H 0.0 **** 0.06
33400 H 33.659107494547584 88.0386605809804 10.589025904987409 H 0.0 **** 0.06
33401 C 47.318880714824246 122.4668255407166 5.281970987563923 C 0.0 **** -0.24
33402 H 48.31810614025076 122.74479860884722 5.617579752519305 H 0.0 **** 0.06
33403 H 46.98383339616268 121.58697257414595 5.830907904297476 H 0.0 **** 0.06
33404 H 47.34383349163292 122.24139372067806 4.21520595641482 H 0.0 **** 0.06
33405 H 46.632019004019554 123.2929229909197 5.463016950263892 H 0.0 **** 0.06
33406 C 103.74213801967021 97.91504225648828 93.48196145319437 C 0.0 **** -0.24
33407 H 104.11318597086054 98.04634681505922 92.46585260079226 H 0.0 **** 0.06
33408 H 104.57099382106337 98.00663920438981 94.18480200056491 H 0.0 **** 0.06
33409 H 103.2900453027784 96.92813918732222 93.579132429647 H 0.0 **** 0.06
33410 H 102.99629140146186 98.68032871063676 93.69875909573285 H 0.0 **** 0.06
33411 C 18.730709624196436 25.60907424873409 6.630937650348656 C 0.0 **** -0.24
33412 H 18.44805479144668 25.43888487609317 5.592643151526232 H 0.0 **** 0.06
33413 H 19.186203016213994 26.594603312843333 6.7267026257605345 H 0.0 **** 0.06
33414 H 19.44546736737965 24.846175749558597 6.941635295237713 H 0.0 **** 0.06
33415 H 17.844060813796148 25.554633214433778 7.262448345311341 H 0.0 **** 0.06
33416 C 24.548918240683633 65.87660852479507 85.19252840287741 C 0.0 **** -0.24
33417 H 24.495675842167714 65.63381747169778 84.13105467245025 H 0.0 **** 0.06
33418 H 23.544792704587394 66.06674394495138 85.57315972190993 H 0.0 **** 0.06
33419 H 25.16439529635653 66.76654555483631 85.33086813679539 H 0.0 **** 0.06
33420 H 24.990978618697284 65.0411978283852 85.73434408436826 H 0.0 **** 0.06
33421 C 22.95541862724059 103.71625428916514 49.54118387755139 C 0.0 **** -0.24
33422 H 23.061061982823936 102.95532993925463 48.767905581303935 H 0.0 **** 0.06
33423 H 22.244393673128286 103.37354249204088 50.292567812765355 H 0.0 **** 0.06
33424 H 22.592438048349507 104.64131641987228 49.09258395027054 H 0.0 **** 0.06
33425 H 23.923224860031503 103.89408394895167 50.01021631095483 H 0.0 **** 0.06
33426 C 43.16758880914341 69.34562574882293 98.69038188736198 C 0.0 **** -0.24
33427 H 42.09431338663266 69.16420113843489 98.62341360740646 H 0.0 **** 0.06
33428 H 43.70260047327206 68.39887361019291 98.60273640864864 H 0.0 **** 0.06
33429 H 43.39870815474893 69.80564705069492 99.65082653653218 H 0.0 **** 0.06
33430 H 43.47366877142662 70.01293462679368 97.8849387764719 H 0.0 **** 0.06
33431 C 115.49603849681307 19.800921905417127 43.850040641692715 C 0.0 **** -0.24
33432 H 115.4279769751789 18.747293935737076 44.12193854440284 H 0.0 **** 0.06
33433 H 116.45705905996022 20.198023886908047 44.1772962202059 H 0.0 **** 0.06
33434 H 114.69082568535174 20.353438734094226 44.333593281235096 H 0.0 **** 0.06
33435 H 115.40958041479962 19.902729823410482 42.76855748429409 H 0.0 **** 0.06
33436 C 73.38552825219504 124.17313889599615 14.258107529454435 C 0.0 **** -0.24
33437 H 73.42426798190435 124.51256872949892 15.293109133277142 H 0.0 **** 0.06
33438 H 72.48215931570202 123.5822151377564 14.104015244455923 H 0.0 **** 0.06
33439 H 74.26162046766558 123.56160120801655 14.043080148680133 H 0.0 **** 0.06
33440 H 73.37229954273445 125.03670114182341 13.593000797038457 H 0.0 **** 0.06
33441 C 52.128662678321064 71.25893744319423 88.41852610146717 C 0.0 **** -0.24
33442 H 53.15216824942041 71.15358493218174 88.05726863282665 H 0.0 **** 0.06
33443 H 51.51486155573258 71.71416738622425 87.64056488950378 H 0.0 **** 0.06
33444 H 52.12098151058859 71.89229954302964 89.30558368465644 H 0.0 **** 0.06
33445 H 51.72943900357092 70.27670791551583 88.66961825833569 H 0.0 **** 0.06
33446 C 40.735664063659584 91.07332876576817 79.62515642605695 C 0.0 **** -0.24
33447 H 41.60443681166879 91.59470281165295 80.02765580554158 H 0.0 **** 0.06
33448 H 40.176395128314965 91.74807477110699 78.97616501237096 H 0.0 **** 0.06
33449 H 40.097322716197795 90.74389152995403 80.44463925674665 H 0.0 **** 0.06
33450 H 41.0663642610306 90.20756406071104 79.05133627461728 H 0.0 **** 0.06
33451 C 54.08616411275031 76.80812267162787 28.03547678908788 C 0.0 **** -0.24
33452 H 55.11381856674713 77.15780890723968 27.934622490382594 H 0.0 **** 0.06
33453 H 53.40384510578339 77.57651764131694 27.670695071519276 H 0.0 **** 0.06
33454 H 53.87408083943666 76.60041643904114 29.08410756022198 H 0.0 **** 0.06
33455 H 53.95415236997998 75.8973259528174 27.449975265333507 H 0.0 **** 0.06
33456 C 83.03420647964215 19.385613021195496 117.40955499415826 C 0.0 **** -0.24
33457 H 82.97335861013799 19.966407502884323 116.48906109071066 H 0.0 **** 0.06
33458 H 82.31518736771423 19.771798352897605 118.13186870756716 H 0.0 **** 0.06
33459 H 84.04060097844037 19.462624284204907 117.82107423497263 H 0.0 **** 0.06
33460 H 82.80890438780939 18.340631295599962 117.1954968416482 H 0.0 **** 0.06
33461 C 56.69443977265345 32.78863751079311 101.64491747533003 C 0.0 **** -0.24
33462 H 56.59266897278252 33.26827011123882 100.67161178855531 H 0.0 **** 0.06
33463 H 56.945761002980845 33.5394224987825 102.39517098904355 H 0.0 **** 0.06
33464 H 57.4850358567694 32.039451156916215 101.60011392416186 H 0.0 **** 0.06
33465 H 55.75300460467304 32.30792921930362 101.91251627507825 H 0.0 **** 0.06
33466 C 113.70298156770329 64.53602933017704 95.90348714846459 C 0.0 **** -0.24
33467 H 113.29449232086566 65.49974675467327 96.20471608836317 H 0.0 **** 0.06
33468 H 114.79144290591432 64.57526206590755 95.93816252698568 H 0.0 **** 0.06
33469 H 113.37935985585143 64.30551581493705 94.88818854906157 H 0.0 **** 0.06
33470 H 113.34552838747051 63.76170870700899 96.58239694526488 H 0.0 **** 0.06
33471 C 123.8936224625474 86.34014393392204 37.67233172091696 C 0.0 **** -0.24
33472 H 124.2675055204642 86.03323079049625 36.694783477634076 H 0.0 **** 0.06
33473 H 123.69358961135947 87.41210188413226 37.66397851204499 H 0.0 **** 0.06
33474 H 124.64090657795708 86.11521998278465 38.43310458971081 H 0.0 **** 0.06
33475 H 122.97438794672941 85.80008660869902 37.89591530538732 H 0.0 **** 0.06
33476 C 34.185252022489045 110.38975394246694 93.35400986650843 C 0.0 **** -0.24
33477 H 34.51959403381005 111.42674836873513 93.38605186977291 H 0.0 **** 0.06
33478 H 34.7617316213036 109.80120931710061 94.06841539284176 H 0.0 **** 0.06
33479 H 34.33414254192983 109.99143602748626 92.35076108496465 H 0.0 **** 0.06
33480 H 33.12783787112392 110.34109448518453 93.61205680407177 H 0.0 **** 0.06
33481 C 98.59258377307869 117.52328424592741 75.96311336568687 C 0.0 **** -0.24
33482 H 98.17854656331768 116.53849808064666 76.1787104059539 H 0.0 **** 0.06
33483 H 97.97873657118747 118.01929511517741 75.21163648120972 H 0.0 **** 0.06
33484 H 99.61036931314824 117.41458452256833 75.58851135323536 H 0.0 **** 0.06
33485 H 98.60240634204685 118.12057145749367 76.87580625224544 H 0.0 **** 0.06
33486 C 27.37342878450076 98.51391704756543 42.33537368116089 C 0.0 **** -0.24
33487 H 28.061510754879322 98.63437731560708 41.49787424770142 H 0.0 **** 0.06
33488 H 27.480049031997567 97.51221875807326 42.751708122059085 H 0.0 **** 0.06
33489 H 26.350041428268554 98.65551300209543 41.98603189725293 H 0.0 **** 0.06
33490 H 27.601866972495316 99.25355245664187 43.10214686392919 H 0.0 **** 0.06
33491 C 3.8509596014799428 52.658689727397416 15.904467830351507 C 0.0 **** -0.24
33492 H 3.680686430646716 53.05471157603024 16.905370635111808 H 0.0 **** 0.06
33493 H 4.175573634107508 51.62025704342115 15.974539406972767 H 0.0 **** 0.06
33494 H 4.6225330946129475 53.24802431955072 15.407910835004671 H 0.0 **** 0.06
33495 H 2.9266916648040535 52.71283597430785 15.33043072510101 H 0.0 **** 0.06
33496 C 95.39591704538617 92.50517318655534 122.22332805175733 C 0.0 **** -0.24
33497 H 95.36380487580098 92.30582949491293 121.15249119498577 H 0.0 **** 0.06
33498 H 95.6643560649226 93.54868036983962 122.39067799934344 H 0.0 **** 0.06
33499 H 96.13880414719782 91.85900073323506 122.69145158899721 H 0.0 **** 0.06
33500 H 94.41670309362334 92.30718214823378 122.6586914237028 H 0.0 **** 0.06
33501 C 37.46410639795906 107.79505375023709 40.63033105594769 C 0.0 **** -0.24
33502 H 38.44010194193143 107.88715215340562 41.10702309397601 H 0.0 **** 0.06
33503 H 36.936413617079864 106.93534117504737 41.043601352271054 H 0.0 **** 0.06
33504 H 37.59646773720644 107.65823680490308 39.55697216022634 H 0.0 **** 0.06
33505 H 36.884172386419976 108.70063201530957 40.811952430663865 H 0.0 **** 0.06
33506 C 63.72548746232036 17.611552569310618 75.7266709409099 C 0.0 **** -0.24
33507 H 63.52034186353143 18.664332973109822 75.53702569242878 H 0.0 **** 0.06
33508 H 64.3001497829344 17.197408936309785 74.89721445386 H 0.0 **** 0.06
33509 H 62.784357186621946 17.069243698616617 75.82327144054408 H 0.0 **** 0.06
33510 H 64.29717014492417 17.512779206503126 76.64929568846063 H 0.0 **** 0.06
33511 C 37.10875821121283 54.62433200031127 47.28995466415532 C 0.0 **** -0.24
33512 H 36.949703384920554 53.55311872453548 47.163576569634614 H 0.0 **** 0.06
33513 H 37.43231833938441 55.05703512273817 46.342480843797716 H 0.0 **** 0.06
33514 H 37.87609110298581 54.79129102843926 48.04635578892372 H 0.0 **** 0.06
33515 H 36.17786397542159 55.094942843162954 47.60560960328536 H 0.0 **** 0.06
33516 C 68.27977044330227 115.79754039261452 85.68892909862265 C 0.0 **** -0.24
33517 H 69.05122435420364 115.95437156044477 84.93536388701008 H 0.0 **** 0.06
33518 H 68.21827877252905 116.67404860883885 86.33366300373049 H 0.0 **** 0.06
33519 H 68.53011315154636 114.92231889084879 86.28843936378493 H 0.0 **** 0.06
33520 H 67.3194654949301 115.63942251032557 85.19825013996487 H 0.0 **** 0.06
33521 C 13.612356181211283 69.11472099461727 56.568368249657624 C 0.0 **** -0.24
33522 H 14.558799919884777 69.60823746893553 56.348952180065226 H 0.0 **** 0.06
33523 H 12.820056124796395 69.56618456231044 55.97092118411365 H 0.0 **** 0.06
33524 H 13.37996500676718 69.22796908912014 57.626726816778614 H 0.0 **** 0.06
33525 H 13.691444575550264 68.05462835626477 56.32596905632039 H 0.0 **** 0.06
33526 C 98.62688923438834 52.15306173004079 109.24307694649825 C 0.0 **** -0.24
33527 H 99.60807875450561 51.78276702919334 109.54076921546707 H 0.0 **** 0.06
33528 H 98.23147749812881 52.80175129357579 110.02525030398792 H 0.0 **** 0.06
33529 H 97.95091862236598 51.311652626444925 109.09199703651592 H 0.0 **** 0.06
33530 H 98.71869678455313 52.717298148977434 108.3152395031096 H 0.0 **** 0.06
33531 C 88.13821849516455 40.02419300118876 33.834350464922125 C 0.0 **** -0.24
33532 H 87.7502853291914 40.65735834588915 33.03674643839554 H 0.0 **** 0.06
33533 H 89.20952386025795 40.19248468586662 33.94398361287898 H 0.0 **** 0.06
33534 H 87.95893251368454 38.97775831875407 33.5869808767406 H 0.0 **** 0.06
33535 H 87.63395789633375 40.26819997329412 34.769856531537755 H 0.0 **** 0.06
33536 C 25.212147607786918 104.37927956754407 87.65605625184841 C 0.0 **** -0.24
33537 H 24.212829064066078 104.70612787978837 87.36877532590908 H 0.0 **** 0.06
33538 H 25.56680291264238 103.63066023968312 86.94604601038937 H 0.0 **** 0.06
33539 H 25.180086064116892 103.94505398036091 88.65514477917374 H 0.0 **** 0.06
33540 H 25.888271128260534 105.23326859063658 87.65189063435736 H 0.0 **** 0.06
33541 C 0.9542261620804364 38.4658678138222 20.924393611044366 C 0.0 **** -0.24
33542 H 1.7857987860689502 38.551723846073116 20.225367582427623 H 0.0 **** 0.06
33543 H 0.1241039488423965 37.95054149555315 20.44080429520895 H 0.0 **** 0.06
33544 H 0.6343307023837159 39.46170698325102 21.23194682301437 H 0.0 **** 0.06
33545 H 1.2716988276792591 37.900161830236016 21.800726646874296 H 0.0 **** 0.06
33546 C 88.94004188512723 61.200627486727655 85.098145568349 C 0.0 **** -0.24
33547 H 88.36458525790754 60.27481441324994 85.06348140538609 H 0.0 **** 0.06
33548 H 89.93032325490233 60.99714668457406 85.50581220545374 H 0.0 **** 0.06
33549 H 88.42647583013873 61.92231259992246 85.73282515194367 H 0.0 **** 0.06
33550 H 89.03647823227703 61.60547191453668 84.09148641815648 H 0.0 **** 0.06
33551 C 111.79043014119142 103.23484259034869 52.619133647082734 C 0.0 **** -0.24
33552 H 111.68881385104957 102.96794950078373 51.56732572628086 H 0.0 **** 0.06
33553 H 111.02740887582131 102.71637466503621 53.19991181248599 H 0.0 **** 0.06
33554 H 111.66471972847236 104.3112372491921 52.73381629457147 H 0.0 **** 0.06
33555 H 112.77822257768449 102.9442797126435 52.97398138203087 H 0.0 **** 0.06
33556 C 16.64390743868581 2.7963495253472903 53.79740434716322 C 0.0 **** -0.24
33557 H 17.39712865408971 2.735252983773977 53.011662188551924 H 0.0 **** 0.06
33558 H 15.652436745962898 2.681099182863118 53.35901986840301 H 0.0 **** 0.06
33559 H 16.71202444242368 3.765039552736127 54.29211475962714 H 0.0 **** 0.06
33560 H 16.813508053959946 2.0032471678553367 54.52575247664103 H 0.0 **** 0.06
33561 C 116.32114122431801 94.24736522120784 87.1327630004609 C 0.0 **** -0.24
33562 H 117.05433793568065 94.70882260283895 87.79402343135473 H 0.0 **** 0.06
33563 H 115.50120557022512 94.94323081846517 86.95751673306879 H 0.0 **** 0.06
33564 H 115.93577074412246 93.33944836837094 87.59599215647168 H 0.0 **** 0.06
33565 H 116.79546450605267 93.99765316608676 86.18359387460205 H 0.0 **** 0.06
33566 C 115.53838199877359 10.11268865545938 108.87836114327536 C 0.0 **** -0.24
33567 H 115.97609843303522 11.101618054149384 108.73982338513571 H 0.0 **** 0.06
33568 H 116.00011158597445 9.410976248120477 108.18463560274881 H 0.0 **** 0.06
33569 H 114.46607087081813 10.160948319977393 108.68848074986636 H 0.0 **** 0.06
33570 H 115.71113912578028 9.779842266873203 109.90225713974445 H 0.0 **** 0.06
33571 C 119.25553289159808 0.3771726069142858 111.26776398793334 C 0.0 **** -0.24
33572 H 120.33077340711179 0.36537413354977843 111.44653855088347 H 0.0 **** 0.06
33573 H 118.75482871211523 0.8705549495341245 112.10108380640054 H 0.0 **** 0.06
33574 H 118.89139243978343 -0.6468644194286242 111.1781667216861 H 0.0 **** 0.06
33575 H 119.0469619404949 0.9190329320238106 110.34583112791438 H 0.0 **** 0.06
33576 C 93.79792663757172 123.32091433575665 9.009252407597728 C 0.0 **** -0.24
33577 H 94.42547920671029 122.95899393240606 8.194875899385693 H 0.0 **** 0.06
33578 H 94.10173253978542 122.84337569867412 9.941348747483914 H 0.0 **** 0.06
33579 H 92.75673742461805 123.0802547301335 8.798982147204356 H 0.0 **** 0.06
33580 H 93.91003836420975 124.40145811246643 9.101017538328335 H 0.0 **** 0.06
33581 C 26.154489634274377 12.974930842547796 64.16572548144256 C 0.0 **** -0.24
33582 H 25.614772785854008 12.778133547021145 65.09230752344216 H 0.0 **** 0.06
33583 H 25.444622809832573 13.242485537394622 63.38160788586261 H 0.0 **** 0.06
33584 H 26.703582281362706 12.080792152548337 63.868870248982404 H 0.0 **** 0.06
33585 H 26.853849422299355 13.796312368650291 64.31926681793513 H 0.0 **** 0.06
33586 C 46.48370834718813 69.31170940800195 38.12094418785061 C 0.0 **** -0.24
33587 H 46.92503580635622 69.29843221749842 37.12368265206626 H 0.0 **** 0.06
33588 H 46.005144675455796 70.27685964283955 38.291811477965474 H 0.0 **** 0.06
33589 H 47.263745428736115 69.1555940442123 38.865720543895264 H 0.0 **** 0.06
33590 H 45.74093244850863 68.51837712476281 38.199712941618934 H 0.0 **** 0.06
33591 C 79.05904211249964 6.492783482357794 66.82703938244794 C 0.0 **** -0.24
33592 H 79.93599405312096 6.646586988984296 66.1995424551325 H 0.0 **** 0.06
33593 H 78.82256793252316 5.429708485172512 66.86665243125697 H 0.0 **** 0.06
33594 H 78.2131642216309 7.039004186592791 66.40977779043817 H 0.0 **** 0.06
33595 H 79.26490734264843 6.857671938280873 67.83373629559799 H 0.0 **** 0.06
33596 C 77.85850367700225 19.07201270233179 36.44631808880948 C 0.0 **** -0.24
33597 H 77.92543046117795 19.424834518852606 37.475623823818694 H 0.0 **** 0.06
33598 H 76.97557277601382 18.440876240710907 36.335920605070896 H 0.0 **** 0.06
33599 H 78.75064759361085 18.495166369122558 36.202006278132075 H 0.0 **** 0.06
33600 H 77.78157540165134 19.92573616526363 35.774234084972136 H 0.0 **** 0.06
33601 C 105.41845260106743 107.98284602940373 17.634416678610766 C 0.0 **** -0.24
33602 H 105.65929152388605 107.78811237478078 18.679079819598105 H 0.0 **** 0.06
33603 H 105.09319342356258 107.05805189800708 17.15768719545486 H 0.0 **** 0.06
33604 H 106.30312626732535 108.36378294116105 17.12307594973748 H 0.0 **** 0.06
33605 H 104.6197442378978 108.72220369499587 17.577981918429384 H 0.0 **** 0.06
33606 C 114.8572484771868 1.2404157994633636 7.124898392912314 C 0.0 **** -0.24
33607 H 115.4696897279923 1.4605781867018521 8.000068101237616 H 0.0 **** 0.06
33608 H 115.4956272793216 1.1769792049286707 6.242418858005237 H 0.0 **** 0.06
33609 H 114.12353363959903 2.033163752884434 6.9864974873893 H 0.0 **** 0.06
33610 H 114.34368956783536 0.28994154982873965 7.271259860912295 H 0.0 **** 0.06
33611 C 0.7334690685980974 17.4162793062912 62.81961650933576 C 0.0 **** -0.24
33612 H 1.3357739208343702 16.55200520741787 62.54029619906464 H 0.0 **** 0.06
33613 H 1.149509504690485 17.87375593931504 63.717657840829546 H 0.0 **** 0.06
33614 H -0.2904976861332784 17.09796151629042 63.0137982456487 H 0.0 **** 0.06
33615 H 0.7407380871519962 18.142441622098804 62.00562310727811 H 0.0 **** 0.06
33616 C 13.604184122408668 103.20299109333536 34.50055622334827 C 0.0 **** -0.24
33617 H 14.3896437070714 102.46945053421888 34.68702951131695 H 0.0 **** 0.06
33618 H 13.58118256585631 103.92571142112484 35.3165831825753 H 0.0 **** 0.06
33619 H 12.64186130556746 102.69539076358922 34.435946645761476 H 0.0 **** 0.06
33620 H 13.806405591794856 103.71984853909498 33.562721730205965 H 0.0 **** 0.06
33621 C 98.42690194514265 46.40740060607092 16.20067007648197 C 0.0 **** -0.24
33622 H 97.55791803203759 46.13400223545807 15.602464445624662 H 0.0 **** 0.06
33623 H 99.12487811848659 46.97745490446951 15.58738134056216 H 0.0 **** 0.06
33624 H 98.91617685317858 45.503520200604015 16.56471818858222 H 0.0 **** 0.06
33625 H 98.10772955043738 47.01405517030457 17.049041464132586 H 0.0 **** 0.06
33626 C 54.04343810152592 119.27465980182886 93.82938288082067 C 0.0 **** -0.24
33627 H 54.91911457263454 119.8428780219833 93.51385706543587 H 0.0 **** 0.06
33628 H 53.22473885990193 119.4540173127605 93.13265615576421 H 0.0 **** 0.06
33629 H 53.746742334391485 119.59205767868647 94.82930084924791 H 0.0 **** 0.06
33630 H 54.285853068555525 118.21223238277037 93.84221438491588 H 0.0 **** 0.06
33631 C 56.77795050392098 49.281079408148656 123.62099216986168 C 0.0 **** -0.24
33632 H 57.33221742105209 49.25232752068209 122.68298352934575 H 0.0 **** 0.06
33633 H 56.65839236566691 48.26736606760659 124.0032693190024 H 0.0 **** 0.06
33634 H 55.79642212464492 49.724503840899416 123.44941829942354 H 0.0 **** 0.06
33635 H 57.3253514621247 49.88093266003959 124.34834215168546 H 0.0 **** 0.06
33636 C 75.63616570172466 12.642216441282415 113.9526201110196 C 0.0 **** -0.24
33637 H 76.31839155070031 12.253800849923493 113.19626904136894 H 0.0 **** 0.06
33638 H 74.63181361386577 12.260812676052083 113.76602480776103 H 0.0 **** 0.06
33639 H 75.6267754819179 13.731905844345675 113.9077356815384 H 0.0 **** 0.06
33640 H 75.96936943512601 12.322737702169263 114.94046289125374 H 0.0 **** 0.06
33641 C 69.62391156704444 46.14514044403256 105.7154167322314 C 0.0 **** -0.24
33642 H 70.46228665547301 46.7771036928894 106.0075029205839 H 0.0 **** 0.06
33643 H 69.83498724044404 45.68686669267561 104.74903898268559 H 0.0 **** 0.06
33644 H 68.72094795726167 46.75112223930773 105.64004765686556 H 0.0 **** 0.06
33645 H 69.47784460976271 45.3668151137378 106.46407139551397 H 0.0 **** 0.06
33646 C 43.049678719924344 21.271339184042148 122.17333497473491 C 0.0 **** -0.24
33647 H 42.80198007440072 21.968529318023542 121.3731543797938 H 0.0 **** 0.06
33648 H 42.83616415918482 21.73387058961424 123.13746462895503 H 0.0 **** 0.06
33649 H 44.10830794124121 21.015441326820934 122.11902824824098 H 0.0 **** 0.06
33650 H 42.45111452115819 20.36564900396533 122.06413775817207 H 0.0 **** 0.06
33651 C 116.16950151467461 68.94235657799823 93.87331574581448 C 0.0 **** -0.24
33652 H 116.26710367406545 68.31274934156454 92.98963866427852 H 0.0 **** 0.06
33653 H 117.15164751051991 69.09787108253988 94.31947958978205 H 0.0 **** 0.06
33654 H 115.51530263695581 68.45485886427639 94.5959259437252 H 0.0 **** 0.06
33655 H 115.74277370572504 69.90472867729744 93.58820505859903 H 0.0 **** 0.06
33656 C 9.142230722156455 103.66330453059251 15.984711079651987 C 0.0 **** -0.24
33657 H 8.367089746736667 104.26616994235289 16.457820445104915 H 0.0 **** 0.06
33658 H 9.036203482933217 103.722559769636 14.90087676551613 H 0.0 **** 0.06
33659 H 9.040627204753378 102.62626897014101 16.303759115947344 H 0.0 **** 0.06
33660 H 10.122477039511068 104.03950379639448 16.275401486834994 H 0.0 **** 0.06
33661 C 83.09161809540788 93.24070230826334 3.67062832624066 C 0.0 **** -0.24
33662 H 83.74045718536931 92.40911992207299 3.3957060145776268 H 0.0 **** 0.06
33663 H 83.41659790563651 93.65297947846838 4.626696026724275 H 0.0 **** 0.06
33664 H 82.06452149313478 92.88715557272764 3.7572421017879947 H 0.0 **** 0.06
33665 H 83.1472727152273 94.01297233430401 2.90297846215951 H 0.0 **** 0.06
33666 C 67.29437695213741 103.75875940049195 38.98864735342431 C 0.0 **** -0.24
33667 H 68.0584829365014 104.53372291037687 39.05590324911532 H 0.0 **** 0.06
33668 H 66.56605604887109 103.89650835250147 39.78839459127235 H 0.0 **** 0.06
33669 H 67.76163542496211 102.77870733269957 39.087157222684795 H 0.0 **** 0.06
33670 H 66.79286641662465 103.8269042758609 38.023173803211876 H 0.0 **** 0.06
33671 C 96.00278838989536 71.14969274039927 0.7704391081974791 C 0.0 **** -0.24
33672 H 95.08496180292056 70.67016650630941 0.43201247098649276 H 0.0 **** 0.06
33673 H 95.8101950938603 72.20549938032545 0.9633300567620182 H 0.0 **** 0.06
33674 H 96.76748949393962 71.05452947119412 -0.0009083609607216658 H 0.0 **** 0.06
33675 H 96.34799757376209 70.66884053086184 1.6851611564286912 H 0.0 **** 0.06
33676 C 67.52043301531324 48.18894029085115 37.80308064914112 C 0.0 **** -0.24
33677 H 66.635148798101 47.82493975081772 38.323277823707514 H 0.0 **** 0.06
33678 H 68.41463628868402 47.81385457176236 38.303197675249436 H 0.0 **** 0.06
33679 H 67.52653528085057 49.27891428352527 37.81525322016557 H 0.0 **** 0.06
33680 H 67.5062195098084 47.8370677022821 36.771208369788354 H 0.0 **** 0.06
33681 C 29.492564944070324 112.3604007957079 74.87936994585932 C 0.0 **** -0.24
33682 H 28.801241995215165 113.00756926873319 75.41922850168295 H 0.0 **** 0.06
33683 H 30.492415038532265 112.46440473308817 75.30266979505602 H 0.0 **** 0.06
33684 H 29.510416486413817 112.6457814730112 73.82780118000893 H 0.0 **** 0.06
33685 H 29.16597494225077 111.32459573021131 74.96987698914886 H 0.0 **** 0.06
33686 C 7.030747770713759 62.28892183612642 60.852114328144665 C 0.0 **** -0.24
33687 H 7.611725113688422 61.523335558317115 61.36732374053531 H 0.0 **** 0.06
33688 H 7.680203494789623 63.12622933337572 60.59559696922207 H 0.0 **** 0.06
33689 H 6.229470695250981 62.63565940175518 61.50443388125959 H 0.0 **** 0.06
33690 H 6.6025290438802955 61.867716551208915 59.941863481692764 H 0.0 **** 0.06
33691 C 49.37073665135474 24.675635326658337 26.507994355786167 C 0.0 **** -0.24
33692 H 50.18566342134588 25.21250967269127 26.022030340097928 H 0.0 **** 0.06
33693 H 49.70000359989857 24.323194001905975 27.4854267529781 H 0.0 **** 0.06
33694 H 49.08026937117262 23.823004697682023 25.892570450108856 H 0.0 **** 0.06
33695 H 48.517842048576334 25.34254065593649 26.630042424112325 H 0.0 **** 0.06
33696 C 103.9087588662702 43.76693096800358 58.01199343750659 C 0.0 **** -0.24
33697 H 103.0789125925522 43.695336605610976 58.71590975275711 H 0.0 **** 0.06
33698 H 104.52775625659491 44.62748627955983 58.26689640929675 H 0.0 **** 0.06
33699 H 103.51681396098921 43.88697311543268 57.00216485596752 H 0.0 **** 0.06
33700 H 104.50856436444872 42.858271730145475 58.063978650712016 H 0.0 **** 0.06
33701 C 22.797758662281637 121.48798728043215 24.807466102100733 C 0.0 **** -0.24
33702 H 23.036345360369353 122.54707332382091 24.89719217810793 H 0.0 **** 0.06
33703 H 23.452580366076916 121.0299060531448 24.065724994680494 H 0.0 **** 0.06
33704 H 21.759387047683276 121.37461670311444 24.496170097697984 H 0.0 **** 0.06
33705 H 22.94356687938722 121.00006501688846 25.771227762972785 H 0.0 **** 0.06
33706 C 100.98312436234576 77.30000139958935 86.82859273235051 C 0.0 **** -0.24
33707 H 100.95407233405493 76.87256155380166 87.83106062997665 H 0.0 **** 0.06
33708 H 100.83521711854169 78.37819804300631 86.8894216027081 H 0.0 **** 0.06
33709 H 100.19235958081767 76.85830905934269 86.2227803795706 H 0.0 **** 0.06
33710 H 101.95134127360653 77.08965108821437 86.37313414848268 H 0.0 **** 0.06
33711 C 79.0131049970428 5.7702947920153065 20.35986995777344 C 0.0 **** -0.24
33712 H 78.57805658632864 6.385034823211043 21.14849302037652 H 0.0 **** 0.06
33713 H 80.08380786919705 5.66239755777076 20.531795019291934 H 0.0 **** 0.06
33714 H 78.84496668534008 6.246691896823961 19.39398279202129 H 0.0 **** 0.06
33715 H 78.54240426443671 4.786419575672539 20.365883830637472 H 0.0 **** 0.06
33716 C 104.50838694803991 35.93542112560368 54.54830107025586 C 0.0 **** -0.24
33717 H 103.80991457138714 35.09917178238916 54.56830241772258 H 0.0 **** 0.06
33718 H 104.71085144771985 36.26382562464886 55.566966979019696 H 0.0 **** 0.06
33719 H 104.0733477079151 36.75782780363704 53.98033731481769 H 0.0 **** 0.06
33720 H 105.43860774641985 35.620465473338726 54.07532547215362 H 0.0 **** 0.06
33721 C 7.606849884899095 19.403320124838082 9.651040550603334 C 0.0 **** -0.24
33722 H 7.588818498007122 20.41620883748702 9.250433561560381 H 0.0 **** 0.06
33723 H 6.659319136637627 19.192792128346515 10.147512280562996 H 0.0 **** 0.06
33724 H 8.422021561922516 19.31091218863683 10.369604177400351 H 0.0 **** 0.06
33725 H 7.757294306153543 18.69435753118612 8.837620511363646 H 0.0 **** 0.06
33726 C 56.587664977218765 70.77544289646123 123.67067248946023 C 0.0 **** -0.24
33727 H 55.922377120346084 69.91418421946081 123.73787597243316 H 0.0 **** 0.06
33728 H 56.280043125860715 71.40779649084165 122.83858332989219 H 0.0 **** 0.06
33729 H 57.61005127345052 70.43297492290353 123.50905044150645 H 0.0 **** 0.06
33730 H 56.538269223962175 71.34499303979344 124.59847277836714 H 0.0 **** 0.06
33731 C 23.627560397536882 12.366306143058239 11.543049722955033 C 0.0 **** -0.24
33732 H 23.385611743445423 13.425275871157794 11.640357182700726 H 0.0 **** 0.06
33733 H 24.45436934629862 12.121164048690446 12.20958855633836 H 0.0 **** 0.06
33734 H 23.914450563359907 12.151597420982625 10.513708722003315 H 0.0 **** 0.06
33735 H 22.75527075457441 11.769552023145252 11.81057361251277 H 0.0 **** 0.06
33736 C 9.426842473575903 25.190440847312004 26.49395759393221 C 0.0 **** -0.24
33737 H 9.95055605987551 25.948524129241548 25.911972627455214 H 0.0 **** 0.06
33738 H 8.366589995577556 25.204646304223957 26.23831784737655 H 0.0 **** 0.06
33739 H 9.547309803363191 25.40122096161872 27.557582145845657 H 0.0 **** 0.06
33740 H 9.841552951169888 24.208410225806688 26.269396432449412 H 0.0 **** 0.06
33741 C 117.40914686869309 58.50374269779701 117.19269892327652 C 0.0 **** -0.24
33742 H 116.97433188757847 57.856238194680174 117.9527564511661 H 0.0 **** 0.06
33743 H 117.48590496439947 57.95890593627834 116.25185579311297 H 0.0 **** 0.06
33744 H 118.40157467028695 58.82180355853231 117.51148416910996 H 0.0 **** 0.06
33745 H 116.7738678315303 59.37907399534353 117.05496582442575 H 0.0 **** 0.06
33746 C 46.52042698007563 94.8709084052813 8.810905286098574 C 0.0 **** -0.24
33747 H 46.74473741298647 95.02279251400311 9.866051569803332 H 0.0 **** 0.06
33748 H 46.042028001125885 95.76422055556806 8.409048918717758 H 0.0 **** 0.06
33749 H 45.84978327764679 94.01769405132994 8.701032226529037 H 0.0 **** 0.06
33750 H 47.44559258861449 94.67766011830865 8.267031720312687 H 0.0 **** 0.06
33751 C 103.58992412266134 109.94838436969566 36.29957862722836 C 0.0 **** -0.24
33752 H 104.49727811629761 110.32573389563372 35.827332076522055 H 0.0 **** 0.06
33753 H 102.76461528502375 109.99765059760956 35.589435785524984 H 0.0 **** 0.06
33754 H 103.35559110580981 110.55729157899675 37.172883137417784 H 0.0 **** 0.06
33755 H 103.7429520829377 108.91465888637056 36.60819283588347 H 0.0 **** 0.06
33756 C 44.66548336053927 4.545187377022955 69.54951809157137 C 0.0 **** -0.24
33757 H 45.45665609136421 5.271666874240168 69.73252057704764 H 0.0 **** 0.06
33758 H 43.95698452248152 4.953377404751961 68.82799258055479 H 0.0 **** 0.06
33759 H 44.14826625785189 4.327931937601193 70.48436582214313 H 0.0 **** 0.06
33760 H 45.09970757484595 3.626836020240944 69.15305261007694 H 0.0 **** 0.06
33761 C 75.56789015566217 91.74338378140291 16.714128127912176 C 0.0 **** -0.24
33762 H 75.70535050230428 92.33991008358754 15.811925399320529 H 0.0 **** 0.06
33763 H 74.62089613289234 92.00947275834038 17.1849016877579 H 0.0 **** 0.06
33764 H 76.38628952661936 91.93951203518326 17.407177844295063 H 0.0 **** 0.06
33765 H 75.55916481311107 90.68517305828543 16.451673033335226 H 0.0 **** 0.06
33766 C 32.50192088672995 39.49885257906848 26.17471244945125 C 0.0 **** -0.24
33767 H 31.890314590822356 38.91338922321023 26.860974125330642 H 0.0 **** 0.06
33768 H 32.12166475575698 40.51993340091016 26.13067845335752 H 0.0 **** 0.06
33769 H 32.46189223987372 39.05273097774389 25.180848300337914 H 0.0 **** 0.06
33770 H 33.53362151255996 39.50957970767115 26.527304982178634 H 0.0 **** 0.06
33771 C 89.9142560535948 22.20010122598194 105.37451362635434 C 0.0 **** -0.24
33772 H 90.17355979984086 22.270840733634174 106.43179424312657 H 0.0 **** 0.06
33773 H 90.17651836090633 21.20947976155776 105.00185781899077 H 0.0 **** 0.06
33774 H 90.4640315824262 22.956813543587117 104.81483957540215 H 0.0 **** 0.06
33775 H 88.8437671150987 22.363220321299707 105.25243878971966 H 0.0 **** 0.06
33776 C 65.60214753860446 53.36800898281348 13.806726264739183 C 0.0 **** -0.24
33777 H 66.25479685881626 52.66312900346941 13.292705128187947 H 0.0 **** 0.06
33778 H 64.58671196547975 52.97116828417671 13.831441094395672 H 0.0 **** 0.06
33779 H 65.60828473244979 54.3202929914612 13.278204640086727 H 0.0 **** 0.06
33780 H 65.95956896726288 53.515765957826716 14.826161179157822 H 0.0 **** 0.06
33781 C 38.98962817312989 17.8328811145866 50.4684280591062 C 0.0 **** -0.24
33782 H 39.79998215217057 18.50365301496862 50.75459097524386 H 0.0 **** 0.06
33783 H 38.223108067971225 18.3954689225248 49.935134881791086 H 0.0 **** 0.06
33784 H 38.55593603062596 17.385505359026297 51.36314578043307 H 0.0 **** 0.06
33785 H 39.38039164322748 17.046903039721883 49.82231733068921 H 0.0 **** 0.06
33786 C 82.82142808145552 27.33059607450462 116.74233388132888 C 0.0 **** -0.24
33787 H 83.19639968145127 27.196318647591426 115.72783175453085 H 0.0 **** 0.06
33788 H 82.66648543698098 26.354536382314222 117.20418890570855 H 0.0 **** 0.06
33789 H 81.87662388727269 27.8723641705173 116.71088517468887 H 0.0 **** 0.06
33790 H 83.54712030943001 27.897347337742907 117.32550494834939 H 0.0 **** 0.06
33791 C 61.47307451595678 98.55524751362817 19.283677918721907 C 0.0 **** -0.24
33792 H 60.51077019340465 98.06615192252757 19.13644158703798 H 0.0 **** 0.06
33793 H 61.31275213726089 99.59352512515107 19.574755334519693 H 0.0 **** 0.06
33794 H 62.04278399799878 98.52126115914099 18.354891207402204 H 0.0 **** 0.06
33795 H 62.02632221134647 98.03922677429192 20.06816518690036 H 0.0 **** 0.06
33796 C 117.4829472490465 78.1588303587088 64.54415523013387 C 0.0 **** -0.24
33797 H 118.36160374914286 77.97613437105153 65.16147407153295 H 0.0 **** 0.06
33798 H 116.61874663079969 78.33772300306723 65.18508853615674 H 0.0 **** 0.06
33799 H 117.29427252036335 77.29020392388418 63.91430159468928 H 0.0 **** 0.06
33800 H 117.6556405595975 79.03317427213977 63.915852357147344 H 0.0 **** 0.06
33801 C 30.037057705908467 88.75737674588308 48.786487020323136 C 0.0 **** -0.24
33802 H 30.081610716795097 88.81575078764857 47.6990601509998 H 0.0 **** 0.06
33803 H 31.004719575308997 89.03382141016088 49.20554021139266 H 0.0 **** 0.06
33804 H 29.78903228287922 87.73897143455362 49.08469783716116 H 0.0 **** 0.06
33805 H 29.271890060672376 89.44141947112985 49.15496604167666 H 0.0 **** 0.06
33806 C 85.6989707692955 4.432354512539863 100.28992084403188 C 0.0 **** -0.24
33807 H 85.59870509384359 3.3496707208316057 100.21326374886263 H 0.0 **** 0.06
33808 H 84.83907306772281 4.910981377808195 99.82229179817847 H 0.0 **** 0.06
33809 H 86.61122889846828 4.748491732187944 99.78347528895773 H 0.0 **** 0.06
33810 H 85.74884290464652 4.719211562288606 101.34060373753493 H 0.0 **** 0.06
33811 C 106.61817786025944 59.53181330596789 108.84361590818176 C 0.0 **** -0.24
33812 H 106.09013218086353 60.477015204847305 108.71426798822353 H 0.0 **** 0.06
33813 H 106.24694668928143 59.028492050410705 109.73589153570504 H 0.0 **** 0.06
33814 H 107.68544305690595 59.724694639003985 108.95208477116404 H 0.0 **** 0.06
33815 H 106.45060669847142 58.89946508786187 107.97221227023587 H 0.0 **** 0.06
33816 C 17.041916646438438 121.02355621663126 64.6011261049438 C 0.0 **** -0.24
33817 H 16.64433593595919 120.47488819456898 63.74813922828895 H 0.0 **** 0.06
33818 H 18.130014660990753 121.05848982879546 64.53618667292952 H 0.0 **** 0.06
33819 H 16.74824026036225 120.52306039279968 65.52351582070733 H 0.0 **** 0.06
33820 H 16.644867342725604 122.03901038582049 64.59598545001282 H 0.0 **** 0.06
33821 C 102.63219320411379 110.92367039556991 117.09210573988722 C 0.0 **** -0.24
33822 H 102.17069159898456 111.75002063658444 116.5517436019851 H 0.0 **** 0.06
33823 H 101.85439265406957 110.29190378254346 117.52300369510087 H 0.0 **** 0.06
33824 H 103.26332960765205 111.31791377651315 117.88903405797416 H 0.0 **** 0.06
33825 H 103.23969572147176 110.33458018140487 116.40534224485452 H 0.0 **** 0.06
33826 C 31.491820355788008 19.44359970735351 37.16627882007626 C 0.0 **** -0.24
33827 H 31.666279555465934 20.167287179914688 36.370557703451425 H 0.0 **** 0.06
33828 H 32.09598206164554 18.553673731437495 36.987088556616726 H 0.0 **** 0.06
33829 H 30.437112762965853 19.16930637002286 37.18270306248468 H 0.0 **** 0.06
33830 H 31.76702874750947 19.883906825398384 38.1243438792539 H 0.0 **** 0.06
33831 C 27.305957895131883 84.88792255985271 19.005903589536672 C 0.0 **** -0.24
33832 H 27.98947171276052 85.61614421777955 19.442580574864053 H 0.0 **** 0.06
33833 H 26.39896865212647 84.83524091369617 19.607188715270865 H 0.0 **** 0.06
33834 H 27.784894204049152 83.90908489119778 18.981214765364427 H 0.0 **** 0.06
33835 H 27.051847862691034 85.19248479468678 17.990491033401554 H 0.0 **** 0.06
33836 C 96.89316495524247 69.0709332456095 21.184291352161893 C 0.0 **** -0.24
33837 H 95.8290269684644 69.26909128737896 21.314799873270886 H 0.0 **** 0.06
33838 H 97.05173062640353 67.99849472492195 21.072872180654485 H 0.0 **** 0.06
33839 H 97.43918818297408 69.43035576610538 22.05682720969571 H 0.0 **** 0.06
33840 H 97.25194307131096 69.58695399782252 20.29289770561411 H 0.0 **** 0.06
33841 C 35.12720759070021 106.0905812550477 2.700153946812918 C 0.0 **** -0.24
33842 H 34.36197613688921 105.9215926223667 1.9432204513095144 H 0.0 **** 0.06
33843 H 34.667550863424 106.51266854753189 3.593820392724183 H 0.0 **** 0.06
33844 H 35.87399352399194 106.78413797214661 2.3125993051093587 H 0.0 **** 0.06
33845 H 35.606363772495115 105.14365472597615 2.950072417828949 H 0.0 **** 0.06
33846 C 12.075950497598058 33.035055938063145 108.30998360985257 C 0.0 **** -0.24
33847 H 12.646250341724752 32.127573720723234 108.50796293331939 H 0.0 **** 0.06
33848 H 11.80114514010647 33.50425631998763 109.25472999384908 H 0.0 **** 0.06
33849 H 11.174501844353642 32.7828356571864 107.75216471077886 H 0.0 **** 0.06
33850 H 12.684285139494449 33.72498863846682 107.72497972058704 H 0.0 **** 0.06
33851 C 98.37057358278568 29.976976493224925 57.35497957585116 C 0.0 **** -0.24
33852 H 99.43132554921301 30.016127586353377 57.1098651223424 H 0.0 **** 0.06
33853 H 97.85150485860862 29.35857722942393 56.6222239866203 H 0.0 **** 0.06
33854 H 97.95608354448828 30.985181234607808 57.338099427554596 H 0.0 **** 0.06
33855 H 98.24248741425696 29.548984918461258 58.34860213309915 H 0.0 **** 0.06
33856 C 70.23462171650618 118.98352556120764 7.269075549884612 C 0.0 **** -0.24
33857 H 70.48774027919279 119.87172746421541 7.848804047505819 H 0.0 **** 0.06
33858 H 69.67815462882083 119.27774173160697 6.379377334046531 H 0.0 **** 0.06
33859 H 69.6224283334069 118.31604694620788 7.876104630150085 H 0.0 **** 0.06
33860 H 71.14935445006171 118.4707532105893 6.972821918643 H 0.0 **** 0.06
33861 C 11.475548481930105 70.38324557091393 114.8612627542414 C 0.0 **** -0.24
33862 H 11.188916068588938 69.33650461356115 114.76573855273881 H 0.0 **** 0.06
33863 H 11.335082480937189 70.7061796920701 115.8927813241603 H 0.0 **** 0.06
33864 H 10.855173529162556 70.99178896147427 114.20242997695827 H 0.0 **** 0.06
33865 H 12.522624345290652 70.50056515202742 114.58195295913993 H 0.0 **** 0.06
33866 C 7.861987320832775 13.813386601368691 31.834525878254425 C 0.0 **** -0.24
33867 H 7.057660088219421 13.354614472790274 31.259401936627782 H 0.0 **** 0.06
33868 H 8.759905699466334 13.201329010532973 31.7566366269174 H 0.0 **** 0.06
33869 H 7.562456328306734 13.88928962342905 32.879430936216025 H 0.0 **** 0.06
33870 H 8.066300287488556 14.809970138065495 31.44185397025167 H 0.0 **** 0.06
33871 C 36.79554171002252 97.6630416181743 71.02155862218034 C 0.0 **** -0.24
33872 H 36.70529369334088 96.64090675775986 71.3899081241349 H 0.0 **** 0.06
33873 H 35.80115900538112 98.0812479122479 70.86644504871951 H 0.0 **** 0.06
33874 H 37.34037153644002 97.66147347664352 70.07714783064617 H 0.0 **** 0.06
33875 H 37.33422537225198 98.26584690939296 71.752020358191 H 0.0 **** 0.06
33876 C 114.87705368405369 68.3064989235879 99.89491901230183 C 0.0 **** -0.24
33877 H 114.50851071837788 69.09750737673858 100.54760759452657 H 0.0 **** 0.06
33878 H 115.82456690781663 68.6131474469748 99.45188619134687 H 0.0 **** 0.06
33879 H 114.14896963912739 68.12035799203204 99.10395314299248 H 0.0 **** 0.06
33880 H 115.0235904809762 67.39586447544923 100.47497118847163 H 0.0 **** 0.06
33881 C 55.18856232154674 60.17251261393608 50.161229275780585 C 0.0 **** -0.24
33882 H 55.75735759904212 60.22721976170001 51.0903777356077 H 0.0 **** 0.06
33883 H 54.26482076816096 60.74296826687177 50.267095679412584 H 0.0 **** 0.06
33884 H 54.950235862536346 59.13212556373091 49.942485280367514 H 0.0 **** 0.06
33885 H 55.781890668105774 60.589037471743126 49.346776536857305 H 0.0 **** 0.06
33886 C 60.57015428916213 21.36608400892993 50.34804197341646 C 0.0 **** -0.24
33887 H 60.88158585758512 20.407418601618275 49.9338081069352 H 0.0 **** 0.06
33888 H 61.29898239040733 21.694687047689456 51.090204657247114 H 0.0 **** 0.06
33889 H 59.594616664495845 21.258015100030917 50.82073858936593 H 0.0 **** 0.06
33890 H 60.5074890965204 22.10413765238104 49.54829038189348 H 0.0 **** 0.06
33891 C 48.82336703611861 16.148274210888246 107.97137124338235 C 0.0 **** -0.24
33892 H 48.359069057365474 17.009582647883065 107.4920865485779 H 0.0 **** 0.06
33893 H 49.46177727581096 16.48714504123558 108.78782741580261 H 0.0 **** 0.06
33894 H 49.42305477232367 15.60584591434548 107.2415844387474 H 0.0 **** 0.06
33895 H 48.04769798366624 15.490751513266446 108.36632216587708 H 0.0 **** 0.06
33896 C 72.88451810381665 33.15044601143758 32.50385054858458 C 0.0 **** -0.24
33897 H 72.71331289771427 34.10522329844312 32.00598525248644 H 0.0 **** 0.06
33898 H 72.28202337638086 32.37876972722076 32.0259410828954 H 0.0 **** 0.06
33899 H 72.60479875736576 33.23355022539195 33.554292602862546 H 0.0 **** 0.06
33900 H 73.93963121496807 32.88570672806584 32.42819214707623 H 0.0 **** 0.06
33901 C 17.61964126653252 55.616544377239904 47.6024865971219 C 0.0 **** -0.24
33902 H 16.719948661979426 56.19841202945449 47.40255422445714 H 0.0 **** 0.06
33903 H 18.41574708013069 55.93711359337371 46.930832225417234 H 0.0 **** 0.06
33904 H 17.410770727657937 54.55901585352191 47.440340871453145 H 0.0 **** 0.06
33905 H 17.92996066388904 55.77166128940192 48.63556418170865 H 0.0 **** 0.06
33906 C 38.722522935997006 91.14352572240497 73.46056271372146 C 0.0 **** -0.24
33907 H 39.687050189324765 91.0155316378538 73.95144902999152 H 0.0 **** 0.06
33908 H 38.2765421588245 92.08660245402919 73.77690611233302 H 0.0 **** 0.06
33909 H 38.062815229292056 90.31967240908389 73.73604095225932 H 0.0 **** 0.06
33910 H 38.86239208346183 91.15114068409156 72.38049964300377 H 0.0 **** 0.06
33911 C 73.3809382670517 50.964539646457354 119.09959818508443 C 0.0 **** -0.24
33912 H 72.8078768962372 51.80728174716606 118.71230998357876 H 0.0 **** 0.06
33913 H 73.10726562472829 50.78624490293791 120.13995775094631 H 0.0 **** 0.06
33914 H 74.44534510750086 51.19003265398422 119.03597684079361 H 0.0 **** 0.06
33915 H 73.16218866645127 50.07474322647778 118.50924265607696 H 0.0 **** 0.06
33916 C 5.225749030323534 63.8202320453145 94.1352513799186 C 0.0 **** -0.24
33917 H 5.193296240203132 64.2574653279087 95.13302267758297 H 0.0 **** 0.06
33918 H 5.922407875859907 62.98199287917484 94.1271115239636 H 0.0 **** 0.06
33919 H 5.553977282994804 64.57283349935416 93.41832880838746 H 0.0 **** 0.06
33920 H 4.23053069192618 63.46823690449821 93.86149847841716 H 0.0 **** 0.06
33921 C 2.8047076185752076 31.357192133800424 26.967492181919084 C 0.0 **** -0.24
33922 H 1.8665257994574063 30.804080485065924 26.99898872368138 H 0.0 **** 0.06
33923 H 3.5446626012916624 30.785391638313513 26.407036518512086 H 0.0 **** 0.06
33924 H 3.1650237429556114 31.51988512763961 27.982974803690382 H 0.0 **** 0.06
33925 H 2.643435455305564 32.31936341401854 26.481543198354615 H 0.0 **** 0.06
33926 C 107.0778009670292 106.19188570714402 23.030518120323762 C 0.0 **** -0.24
33927 H 106.96906048094213 105.40728406865338 22.280637749401862 H 0.0 **** 0.06
33928 H 107.04920633371503 105.74915080239987 24.02587575932199 H 0.0 **** 0.06
33929 H 106.2634054368446 106.90811290801068 22.926888187408153 H 0.0 **** 0.06
33930 H 108.03096217232093 106.70189147936736 22.885550474214313 H 0.0 **** 0.06
33931 C 112.94145850632869 79.89666587433844 104.92333302438777 C 0.0 **** -0.24
33932 H 113.62493760093315 80.22800748824629 105.70582253176957 H 0.0 **** 0.06
33933 H 113.4973380755057 79.34257849334334 104.16677582134386 H 0.0 **** 0.06
33934 H 112.46838125544582 80.76435910148535 104.46409663870128 H 0.0 **** 0.06
33935 H 112.17669527337443 79.25366938031443 105.35833691272543 H 0.0 **** 0.06
33936 C 77.30871823822193 24.217495788895747 43.152681044801355 C 0.0 **** -0.24
33937 H 76.70333688663716 24.767887115640747 42.43281544068418 H 0.0 **** 0.06
33938 H 78.24643095516683 23.9172236500533 42.68412447506242 H 0.0 **** 0.06
33939 H 76.76560190488375 23.330813200185617 43.480230067238026 H 0.0 **** 0.06
33940 H 77.51866936214539 24.853589742713496 44.01251283611717 H 0.0 **** 0.06
33941 C 99.62137841714022 56.301461461016714 16.29678211343858 C 0.0 **** -0.24
33942 H 100.25209501610178 56.856404296610066 15.602863037141532 H 0.0 **** 0.06
33943 H 98.61015832557237 56.709570776021934 16.274033426557992 H 0.0 **** 0.06
33944 H 100.02603992257761 56.388361620089626 17.30484863067312 H 0.0 **** 0.06
33945 H 99.59523942687136 55.2515958725358 16.004349688281252 H 0.0 **** 0.06
33946 C 87.94642434894413 65.43781425684207 97.05842169230027 C 0.0 **** -0.24
33947 H 88.54835621798762 65.98359104347605 96.33045291540321 H 0.0 **** 0.06
33948 H 88.31906022024495 64.41680066782638 97.14389387439252 H 0.0 **** 0.06
33949 H 86.90782411305139 65.41930662407131 96.72881631984086 H 0.0 **** 0.06
33950 H 88.0123625865655 65.93212600415535 98.02735395061944 H 0.0 **** 0.06
33951 C 104.81483737947204 13.473843353554571 23.330028485162188 C 0.0 **** -0.24
33952 H 104.0602038769573 14.141418040506153 22.914508324097085 H 0.0 **** 0.06
33953 H 105.58315577462871 13.283358458191685 22.58082421077171 H 0.0 **** 0.06
33954 H 104.34649114866045 12.531576048779414 23.617913789200543 H 0.0 **** 0.06
33955 H 105.2673808975423 13.937195713377207 24.206438568545423 H 0.0 **** 0.06
33956 C 51.25499993969032 8.601590577052775 70.4185203924541 C 0.0 **** -0.24
33957 H 50.443906912773514 8.193705640182316 69.81530261450793 H 0.0 **** 0.06
33958 H 51.38692974204463 7.988625174810693 71.31002790227322 H 0.0 **** 0.06
33959 H 51.01114342696471 9.622618384096597 70.71175224145051 H 0.0 **** 0.06
33960 H 52.176557117906384 8.60050734101992 69.8372004696555 H 0.0 **** 0.06
33961 C 55.34381895769404 49.036968128427674 38.28361229499939 C 0.0 **** -0.24
33962 H 55.16557043277437 48.33133251743456 37.47234813268642 H 0.0 **** 0.06
33963 H 56.38349717962895 48.96501339024701 38.60577609467566 H 0.0 **** 0.06
33964 H 54.68684285933999 48.80169338355984 39.12082725954929 H 0.0 **** 0.06
33965 H 55.14064183722478 50.05024201866942 37.93594890959716 H 0.0 **** 0.06
33966 C 51.10991588398622 65.5417825530416 8.803780091223587 C 0.0 **** -0.24
33967 H 51.3418083245771 66.05065549535335 9.738892855119104 H 0.0 **** 0.06
33968 H 52.03255840101636 65.17994111782367 8.348330477487536 H 0.0 **** 0.06
33969 H 50.61746225870263 66.23724408652942 8.123783462799963 H 0.0 **** 0.06
33970 H 50.448454581986795 64.69868738527268 9.00361051993383 H 0.0 **** 0.06
33971 C 69.3110693766651 64.0605754099906 77.44905689155686 C 0.0 **** -0.24
33972 H 68.55244512156051 64.7808260367219 77.75470695193468 H 0.0 **** 0.06
33973 H 69.15122996644249 63.1187977771646 77.97548451400506 H 0.0 **** 0.06
33974 H 70.30036093387181 64.4498654451177 77.69314966667514 H 0.0 **** 0.06
33975 H 69.24164654228969 63.89296689926066 76.37461912101153 H 0.0 **** 0.06
33976 C 81.75667607364555 77.90931874440271 41.88106420692672 C 0.0 **** -0.24
33977 H 82.81943815349143 78.07354015319267 42.06189797824709 H 0.0 **** 0.06
33978 H 81.60916779162588 76.91344407400958 41.463193824243746 H 0.0 **** 0.06
33979 H 81.38807708241495 78.65708293297594 41.179203691297005 H 0.0 **** 0.06
33980 H 81.21205509796461 77.99374195018905 42.8221011275125 H 0.0 **** 0.06
33981 C 116.87505330634598 17.05007707489682 6.753041397567358 C 0.0 **** -0.24
33982 H 116.15980798212007 17.541467175548064 6.092597105815244 H 0.0 **** 0.06
33983 H 117.0839573401582 17.69657870254133 7.606192926109998 H 0.0 **** 0.06
33984 H 117.79878190418785 16.856923689337748 6.207769040264338 H 0.0 **** 0.06
33985 H 116.45570061887105 16.107268686780515 7.104417804889849 H 0.0 **** 0.06
33986 C 87.29969113328686 12.596428470595129 0.33377281533212866 C 0.0 **** -0.24
33987 H 87.78115658276076 11.72553350550703 0.7788286552469561 H 0.0 **** 0.06
33988 H 86.596668037319 13.027149984792487 1.0480411888700285 H 0.0 **** 0.06
33989 H 86.7644654627741 12.29592874211653 -0.5665688216172118 H 0.0 **** 0.06
33990 H 88.0560747501408 13.337933042374402 0.07764497332830977 H 0.0 **** 0.06
33991 C 60.14491746465167 78.35572991911255 66.01971509681482 C 0.0 **** -0.24
33992 H 59.66398739276711 78.54683034984544 65.06046664550891 H 0.0 **** 0.06
33993 H 60.88664813149926 77.5652899822237 65.90237343891732 H 0.0 **** 0.06
33994 H 59.39354321658246 78.04523630752226 66.7466395994565 H 0.0 **** 0.06
33995 H 60.63386933562521 79.26442061626972 66.36912592424267 H 0.0 **** 0.06
33996 C 122.3655302334727 31.483781024735947 24.013707814472923 C 0.0 **** -0.24
33997 H 122.42859020426647 32.007375601537376 23.058832449059473 H 0.0 **** 0.06
33998 H 121.72901605140342 30.606057521071136 23.90470864874358 H 0.0 **** 0.06
33999 H 121.94072861669349 32.14998905516961 24.76407180116049 H 0.0 **** 0.06
34000 H 123.36247818718698 31.174819614012847 24.32446690933329 H 0.0 **** 0.06
34001 C 15.661010746233757 90.78475858127663 69.71863192970548 C 0.0 **** -0.24
34002 H 14.941464106694113 90.32371289673715 69.04197749716661 H 0.0 **** 0.06
34003 H 16.48841682055331 90.09646346921579 69.89171498785461 H 0.0 **** 0.06
34004 H 15.17380075489119 91.01295642150102 70.6671691901243 H 0.0 **** 0.06
34005 H 16.0404400189053 91.70513317543472 69.27485075061207 H 0.0 **** 0.06
34006 C 68.74503370824716 44.957461828471736 92.9975284068426 C 0.0 **** -0.24
34007 H 67.71742396949247 44.744836913409415 93.29258363086109 H 0.0 **** 0.06
34008 H 69.2949537503255 44.02128982240562 92.89763012171909 H 0.0 **** 0.06
34009 H 69.21975262448765 45.57871828236543 93.75647836192022 H 0.0 **** 0.06
34010 H 68.7470429193203 45.48409069891014 92.04292706075911 H 0.0 **** 0.06
34011 C 66.06619996027669 50.889594928931785 30.698705367391284 C 0.0 **** -0.24
34012 H 66.53591076878254 51.22205749360623 29.773886456521353 H 0.0 **** 0.06
34013 H 64.98845689058822 50.81729005404617 30.553548303516123 H 0.0 **** 0.06
34014 H 66.27946489693463 51.60546547453204 31.49187059614195 H 0.0 **** 0.06
34015 H 66.46259667043947 49.91210760888947 30.975981347236342 H 0.0 **** 0.06
34016 C 110.05558059861988 72.65159628532194 67.6768797374105 C 0.0 **** -0.24
34017 H 109.10326066858403 73.12518470030466 67.4390279906562 H 0.0 **** 0.06
34018 H 110.87155273799306 73.25801399061064 67.28334097327325 H 0.0 **** 0.06
34019 H 110.08974785128163 71.65884678382758 67.22725681220192 H 0.0 **** 0.06
34020 H 110.15745512255984 72.56351672712805 68.75900188147875 H 0.0 **** 0.06
34021 C 30.3582682613215 38.56350948773202 13.116455655159143 C 0.0 **** -0.24
34022 H 30.801861650048522 39.529018260652315 12.870645785970908 H 0.0 **** 0.06
34023 H 29.5231632156275 38.71199092148038 13.801107784751991 H 0.0 **** 0.06
34024 H 31.107794064098336 37.92929217870746 13.588790420264843 H 0.0 **** 0.06
34025 H 29.99978670156942 38.08612104812847 12.204968459048246 H 0.0 **** 0.06
34026 C 113.74015778091535 81.85075782304236 18.600377127043572 C 0.0 **** -0.24
34027 H 114.64370568092835 81.9534338086053 17.998708957156566 H 0.0 **** 0.06
34028 H 113.79743377365935 82.52352630950065 19.457093431098713 H 0.0 **** 0.06
34029 H 113.65085489934427 80.82268202950402 18.950301155124066 H 0.0 **** 0.06
34030 H 112.87007570231555 82.10535577684973 17.99565426820405 H 0.0 **** 0.06
34031 C 70.3321483354338 55.533090729074104 41.63083370394166 C 0.0 **** -0.24
34032 H 70.81125832091587 56.503686690078126 41.49905792559514 H 0.0 **** 0.06
34033 H 69.74656879181475 55.292983581371374 40.743289973880195 H 0.0 **** 0.06
34034 H 69.67751249429631 55.56683914684021 42.50069551636585 H 0.0 **** 0.06
34035 H 71.09622379924471 54.76875144560121 41.779880565935656 H 0.0 **** 0.06
34036 C 120.52838480056718 99.43112990203701 61.66419372640965 C 0.0 **** -0.24
34037 H 119.87029400248116 99.16950195441387 62.49239357575338 H 0.0 **** 0.06
34038 H 121.43305864664148 98.824919556299 61.712494496532145 H 0.0 **** 0.06
34039 H 120.79282092672005 100.486293452182 61.73061739374532 H 0.0 **** 0.06
34040 H 120.01540184737772 99.24456876251833 60.720020432643864 H 0.0 **** 0.06
34041 C 38.236688249198664 27.094202158465805 61.681864655089896 C 0.0 **** -0.24
34042 H 39.13210932239855 27.55195494908773 62.100296370204404 H 0.0 **** 0.06
34043 H 37.744625744113364 27.801707957251637 61.01418377061074 H 0.0 **** 0.06
34044 H 37.556840070943736 26.82208912346701 62.48919275024656 H 0.0 **** 0.06
34045 H 38.513124736912914 26.199342520204453 61.12354230492508 H 0.0 **** 0.06
34046 C 91.87798847397323 4.340474394526979 73.07780886936624 C 0.0 **** -0.24
34047 H 90.91597310812915 4.540318564247372 73.55192970137554 H 0.0 **** 0.06
34048 H 91.72020207560314 3.754114278062957 72.17271165726001 H 0.0 **** 0.06
34049 H 92.51254195258812 3.7835460791285698 73.76632929478055 H 0.0 **** 0.06
34050 H 92.35874483933287 5.284327843311814 72.82155183553809 H 0.0 **** 0.06
34051 C 4.180852305579606 12.563971208602354 73.22930348689988 C 0.0 **** -0.24
34052 H 3.890063215522275 12.617553617004432 74.27856053453434 H 0.0 **** 0.06
34053 H 5.179407401428591 12.985322127368988 73.10766096594324 H 0.0 **** 0.06
34054 H 3.471813138278435 13.131140759399528 72.62700553943569 H 0.0 **** 0.06
34055 H 4.183137774478212 11.523562321550543 72.90543809694907 H 0.0 **** 0.06
34056 C 92.14567814096323 12.610693853696347 38.048789006586205 C 0.0 **** -0.24
34057 H 92.53230859614801 11.594312269970715 37.986740789294416 H 0.0 **** 0.06
34058 H 91.56317426840876 12.72340456384859 38.96395528580976 H 0.0 **** 0.06
34059 H 91.50867827507217 12.809709169177154 37.18584932963205 H 0.0 **** 0.06
34060 H 92.97666445267558 13.31571901390842 38.05709303985098 H 0.0 **** 0.06
34061 C 39.9949947731364 58.93068914724057 5.768099438196781 C 0.0 **** -0.24
34062 H 39.14341360883452 59.52016077018082 6.107902962452879 H 0.0 **** 0.06
34063 H 40.79512450282573 59.59866039854083 5.449839312416692 H 0.0 **** 0.06
34064 H 39.69129097204862 58.30169822833321 4.932094617196217 H 0.0 **** 0.06
34065 H 40.349985337693425 58.30228848937942 6.584790327048275 H 0.0 **** 0.06
34066 C 42.54568286742543 97.87757328937757 114.39789768882851 C 0.0 **** -0.24
34067 H 41.56005314689287 97.96690825021378 113.94068652694085 H 0.0 **** 0.06
34068 H 42.440883019907034 97.85131154798057 115.4828295091168 H 0.0 **** 0.06
34069 H 43.157515998275386 98.73304436229698 114.11257831983934 H 0.0 **** 0.06
34070 H 43.02223032285809 96.9592479592984 114.05636472962667 H 0.0 **** 0.06
34071 C 20.669035014175684 18.72160064180565 18.97263128242023 C 0.0 **** -0.24
34072 H 20.253545800684577 19.57521001997884 18.438360399620695 H 0.0 **** 0.06
34073 H 21.10300497777211 19.05858231307394 19.914625545659305 H 0.0 **** 0.06
34074 H 21.442666997233623 18.252585991535625 18.36395356293838 H 0.0 **** 0.06
34075 H 19.87776782746876 17.999766607373942 19.17468960629474 H 0.0 **** 0.06
34076 C 4.548111192012442 5.295398749769475 16.030895872730184 C 0.0 **** -0.24
34077 H 4.7266266814253015 4.400830202506398 16.627617789925978 H 0.0 **** 0.06
34078 H 4.928819355972564 5.1395535634970315 15.02153009372168 H 0.0 **** 0.06
34079 H 5.060540738348266 6.14274239688956 16.485917174327312 H 0.0 **** 0.06
34080 H 3.478035235249493 5.496485201770753 15.990124042429528 H 0.0 **** 0.06
34081 C 41.91960410894947 3.8142251993626406 54.51395965526292 C 0.0 **** -0.24
34082 H 40.93900449602985 3.7738362307799598 54.040353483808346 H 0.0 **** 0.06
34083 H 42.531748483084016 2.9876348941077318 54.15219663981932 H 0.0 **** 0.06
34084 H 41.80375092556923 3.7350948811383073 55.594776996977714 H 0.0 **** 0.06
34085 H 42.402342333013635 4.759624572006651 54.268685360079246 H 0.0 **** 0.06
34086 C 22.886404010179604 16.912614451818882 124.28632784142735 C 0.0 **** -0.24
34087 H 22.17628378189619 16.1506533219939 124.60689480657553 H 0.0 **** 0.06
34088 H 23.900011109561547 16.5158451457645 124.35488109946928 H 0.0 **** 0.06
34089 H 22.794513727061087 17.788421953639983 124.9301618298858 H 0.0 **** 0.06
34090 H 22.675021630606977 17.196216009041876 123.25524280067873 H 0.0 **** 0.06
34091 C 121.0199426898217 63.675558554085285 18.11200645874092 C 0.0 **** -0.24
34092 H 120.45674620479437 63.39405746532768 19.00110572232984 H 0.0 **** 0.06
34093 H 122.08049387016266 63.48016605104357 18.276425957031222 H 0.0 **** 0.06
34094 H 120.8732583499875 64.73710658483228 17.90999594106313 H 0.0 **** 0.06
34095 H 120.67135512403289 63.09213126222832 17.2601027162913 H 0.0 **** 0.06
34096 C 32.739713530975024 56.53715287067581 105.54560547892314 C 0.0 **** -0.24
34097 H 33.114330481131674 55.60934478238896 105.97862283359723 H 0.0 **** 0.06
34098 H 31.679725495153775 56.643996321604064 105.77741484326543 H 0.0 **** 0.06
34099 H 32.87512733714884 56.51394399460423 104.46391689139865 H 0.0 **** 0.06
34100 H 33.29073854918326 57.38070041073797 105.96315159783947 H 0.0 **** 0.06
34101 C 98.6133114610212 110.25832862778799 113.56079837205041 C 0.0 **** -0.24
34102 H 99.34294305145974 110.25059793119874 114.36992545251633 H 0.0 **** 0.06
34103 H 98.66719256046369 111.21023771883398 113.03263210017889 H 0.0 **** 0.06
34104 H 97.61223317636282 110.12712599044676 113.9722711829005 H 0.0 **** 0.06
34105 H 98.83005876702018 109.44569402445433 112.86790207432051 H 0.0 **** 0.06
34106 C 4.9911757460366815 12.378203371472665 8.860559162890013 C 0.0 **** -0.24
34107 H 4.571826599127146 12.21870172037805 7.866634477025912 H 0.0 **** 0.06
34108 H 4.567162125873679 11.651923196401214 9.55348573011156 H 0.0 **** 0.06
34109 H 4.751628830508395 13.386988507878385 9.196962991645364 H 0.0 **** 0.06
34110 H 6.073316505251597 12.255313040320232 8.822088076978048 H 0.0 **** 0.06
34111 C 4.267517982855779 5.6720206923583305 71.0314062414688 C 0.0 **** -0.24
34112 H 3.3918619481103462 5.715137324282438 70.3853783331165 H 0.0 **** 0.06
34113 H 4.5696741026351475 4.632559503651009 71.1644922959857 H 0.0 **** 0.06
34114 H 4.026262810916506 6.108136252500742 72.0007987669023 H 0.0 **** 0.06
34115 H 5.083876944126416 6.231957669954738 70.57554078160075 H 0.0 **** 0.06
34116 C 84.3411885159671 43.685588272968964 116.98754434528426 C 0.0 **** -0.24
34117 H 83.59814201286801 42.888930789208786 116.94422593531245 H 0.0 **** 0.06
34118 H 84.20764129042297 44.35349013067926 116.13700574334072 H 0.0 **** 0.06
34119 H 85.34070507148309 43.252604755343576 116.95738478524098 H 0.0 **** 0.06
34120 H 84.21688731227388 44.24775774570603 117.91454679803452 H 0.0 **** 0.06
34121 C 108.819831172325 26.955723238787584 120.6067462069248 C 0.0 **** -0.24
34122 H 109.80292272513083 26.89807188243617 121.07450367945425 H 0.0 **** 0.06
34123 H 108.60189774760255 26.012809393699058 120.10399649137244 H 0.0 **** 0.06
34124 H 108.81219253284928 27.766485118666935 119.87777187979366 H 0.0 **** 0.06
34125 H 108.06521359235802 27.145319597035552 121.36998026425202 H 0.0 **** 0.06
34126 C 8.66156842146951 92.74947271870002 89.3232443732256 C 0.0 **** -0.24
34127 H 8.106894882194098 92.19596078504259 90.08146832180303 H 0.0 **** 0.06
34128 H 8.398832191652836 93.8064826092205 89.38034560041399 H 0.0 **** 0.06
34129 H 8.409797721362935 92.36518823858535 88.33561156035103 H 0.0 **** 0.06
34130 H 9.731646315792439 92.63065187724652 89.49756216798713 H 0.0 **** 0.06
34131 C 13.493544425523215 43.35523500751228 69.70416616355764 C 0.0 **** -0.24
34132 H 12.733918732882906 42.583702939475955 69.57515908305037 H 0.0 **** 0.06
34133 H 13.987830847387169 43.22063115045154 70.66649898767501 H 0.0 **** 0.06
34134 H 13.022687996568322 44.33756192717672 69.67121567350941 H 0.0 **** 0.06
34135 H 14.229098420073921 43.27697222294455 68.90324669609082 H 0.0 **** 0.06
34136 C 36.166329750457834 87.77166046055743 20.43815140941615 C 0.0 **** -0.24
34137 H 35.099869514601124 87.80793577235949 20.65866066076609 H 0.0 **** 0.06
34138 H 36.69237659381159 88.48716706389996 21.07200064351653 H 0.0 **** 0.06
34139 H 36.329987084659905 88.02490515447184 19.390686322224497 H 0.0 **** 0.06
34140 H 36.54334129321421 86.76796491532474 20.633036568129597 H 0.0 **** 0.06
34141 C 34.488327448018225 59.809463637980414 38.33476312249229 C 0.0 **** -0.24
34142 H 35.24215469617548 60.27467839432754 38.97063139979184 H 0.0 **** 0.06
34143 H 34.02298435091327 58.982177690135515 38.87072438490833 H 0.0 **** 0.06
34144 H 34.96026361842444 59.43541620871875 37.42707959053479 H 0.0 **** 0.06
34145 H 33.72967952324929 60.54684980860789 38.0733101744795 H 0.0 **** 0.06
34146 C 43.08378159000597 51.116831279908695 12.66008130142739 C 0.0 **** -0.24
34147 H 43.06625104992515 50.06756218926387 12.36689754360959 H 0.0 **** 0.06
34148 H 44.028946394121476 51.56491969695924 12.352716702096856 H 0.0 **** 0.06
34149 H 42.98169478395683 51.19217857953316 13.742696550875667 H 0.0 **** 0.06
34150 H 42.2586215144303 51.64175468703576 12.18001994230654 H 0.0 **** 0.06
34151 C 91.19032064946487 57.628486481639584 26.380125112203842 C 0.0 **** -0.24
34152 H 91.2358560181849 57.67123274457492 25.291850329905117 H 0.0 **** 0.06
34153 H 90.23072623398059 58.02234925475943 26.718276703059047 H 0.0 **** 0.06
34154 H 91.99774974837999 58.22663578510128 26.801191983502633 H 0.0 **** 0.06
34155 H 91.29360662604381 56.59450606568521 26.70769366831894 H 0.0 **** 0.06
34156 C 21.226920624718048 40.75279683404716 87.13628603825094 C 0.0 **** -0.24
34157 H 21.71603084871444 40.6602244866221 88.10579479902128 H 0.0 **** 0.06
34158 H 21.933171559475937 40.4935688669965 86.34691398485182 H 0.0 **** 0.06
34159 H 20.886119915666058 41.77825685312939 86.99821626622276 H 0.0 **** 0.06
34160 H 20.37202280351744 40.07668404931985 87.09618610942329 H 0.0 **** 0.06
34161 C 119.66886134636682 24.233478041354104 74.1798306317507 C 0.0 **** -0.24
34162 H 119.10606768189717 25.07727389169986 73.78071090401315 H 0.0 **** 0.06
34163 H 120.11090587632192 23.670976166283765 73.35714660435254 H 0.0 **** 0.06
34164 H 119.00018356761286 23.585357887089785 74.74577052909153 H 0.0 **** 0.06
34165 H 120.45908478767424 24.601587926849547 74.8348472578427 H 0.0 **** 0.06
34166 C 57.42184667222082 110.23319519934147 70.90023000322599 C 0.0 **** -0.24
34167 H 57.475489071601004 109.90382077883646 69.8623144384229 H 0.0 **** 0.06
34168 H 57.06084869257165 111.26160577204809 70.93679396223314 H 0.0 **** 0.06
34169 H 58.41401366816635 110.17938452729898 71.3486347138225 H 0.0 **** 0.06
34170 H 56.73844738194714 109.58781499299658 71.45144998505984 H 0.0 **** 0.06
34171 C 74.30538396512225 4.76539655711089 17.519208242506792 C 0.0 **** -0.24
34172 H 74.87242679490843 4.295570053600883 18.323090207854076 H 0.0 **** 0.06
34173 H 73.46006540283685 5.308371696663713 17.940122901498867 H 0.0 **** 0.06
34174 H 73.94154859516189 3.997494759720354 16.83580249677557 H 0.0 **** 0.06
34175 H 74.94976763977424 5.457385655336182 16.97672369053888 H 0.0 **** 0.06
34176 C 66.15695217894638 92.14760901205779 111.29183996593639 C 0.0 **** -0.24
34177 H 67.24467465933091 92.0771737081335 111.2666127037296 H 0.0 **** 0.06
34178 H 65.74614079749146 91.74847418886213 110.36397890035931 H 0.0 **** 0.06
34179 H 65.86281747855068 93.19074863466557 111.40003478785553 H 0.0 **** 0.06
34180 H 65.77567477073066 91.5729644600545 112.1354695297008 H 0.0 **** 0.06
34181 C 9.071743795920213 34.67890078245328 102.63242494142709 C 0.0 **** -0.24
34182 H 8.448063441785962 33.93417885585804 102.1368870206535 H 0.0 **** 0.06
34183 H 8.73415096109727 35.677339364744704 102.3549449088853 H 0.0 **** 0.06
34184 H 10.108929486204033 34.54615722377488 102.32461379859417 H 0.0 **** 0.06
34185 H 8.994000692251518 34.55568986657393 103.71245307289362 H 0.0 **** 0.06
34186 C 76.16997985771769 16.648842365560398 95.0484920713709 C 0.0 **** -0.24
34187 H 75.25683718454727 16.31963571853629 95.5455456012798 H 0.0 **** 0.06
34188 H 76.15282795101027 16.326621130781234 94.00755644814205 H 0.0 **** 0.06
34189 H 77.03314285774064 16.213329285329166 95.5509208212352 H 0.0 **** 0.06
34190 H 76.23427460134101 17.736161423997146 95.09162171824971 H 0.0 **** 0.06
34191 C 2.5045528067980314 75.1046702365351 61.68958737329365 C 0.0 **** -0.24
34192 H 1.4684548439153815 75.40595610321222 61.84889408357178 H 0.0 **** 0.06
34193 H 2.7698247740436415 74.32645881437745 62.40555629665934 H 0.0 **** 0.06
34194 H 3.158672553601349 75.96479885041819 61.82703463646649 H 0.0 **** 0.06
34195 H 2.6188078163738453 74.72007913841864 60.67583236482335 H 0.0 **** 0.06
34196 C 47.48094496043834 94.26244229038832 23.625839735726288 C 0.0 **** -0.24
34197 H 46.52361343690062 94.21483413431866 24.1443824047592 H 0.0 **** 0.06
34198 H 48.010987678113565 93.3185353100979 23.75344867641425 H 0.0 **** 0.06
34199 H 48.07901568125577 95.07396968203477 24.041242493666573 H 0.0 **** 0.06
34200 H 47.31132010766809 94.44371026269124 22.564434985213524 H 0.0 **** 0.06
34201 C 78.8833421021605 57.77567301075038 85.20209215586343 C 0.0 **** -0.24
34202 H 78.49814051839775 58.386246572230846 84.38517086439482 H 0.0 **** 0.06
34203 H 78.21656503078208 56.92972478915124 85.36893833689285 H 0.0 **** 0.06
34204 H 78.94070078021508 58.37722408355279 86.10908497786242 H 0.0 **** 0.06
34205 H 79.87768592534218 57.409874519932885 84.94429072053026 H 0.0 **** 0.06
34206 C 52.37031661175911 64.5656324402307 73.60349035468568 C 0.0 **** -0.24
34207 H 51.59087794652118 63.83520916545207 73.3848652111306 H 0.0 **** 0.06
34208 H 52.015123393752305 65.56302022136632 73.3433612976816 H 0.0 **** 0.06
34209 H 53.26072192551729 64.33287264201398 73.01953234639764 H 0.0 **** 0.06
34210 H 52.61227202853392 64.5316759249867 74.66531905496487 H 0.0 **** 0.06
34211 C 52.845462077926854 21.88487901539773 11.480543664756567 C 0.0 **** -0.24
34212 H 52.44459250560574 22.68271987690241 10.855801139289838 H 0.0 **** 0.06
34213 H 52.256424434378104 20.97829389019941 11.333061777979651 H 0.0 **** 0.06
34214 H 52.79740254961561 22.183465571397193 12.52768933308164 H 0.0 **** 0.06
34215 H 53.88278985003876 21.692749730331798 11.203788870722633 H 0.0 **** 0.06
34216 C 37.902974564923966 65.71507179850228 17.658841038600656 C 0.0 **** -0.24
34217 H 38.52453569335853 66.40455741384844 18.230837629630287 H 0.0 **** 0.06
34218 H 38.451457221833664 64.78897186951578 17.486184111396256 H 0.0 **** 0.06
34219 H 37.64323599247308 66.1689464804364 16.702342545279237 H 0.0 **** 0.06
34220 H 36.991574616445405 65.49891884266715 18.217604692000805 H 0.0 **** 0.06
34221 C 8.562061463715246 91.77895606314863 121.8250363189153 C 0.0 **** -0.24
34222 H 9.233266459006163 91.81796570426599 122.68253720444422 H 0.0 **** 0.06
34223 H 8.528727320152111 90.76104779868531 121.43627762505614 H 0.0 **** 0.06
34224 H 8.926132955451642 92.45277906264866 121.04910317031889 H 0.0 **** 0.06
34225 H 7.562041543233871 92.08512653920981 122.1319019196975 H 0.0 **** 0.06
34226 C 4.738779547787431 108.37556243432721 116.95748354668889 C 0.0 **** -0.24
34227 H 5.255338675233077 108.5077641208178 117.90847414638645 H 0.0 **** 0.06
34228 H 5.109410100859549 107.47545391317345 116.46539672849875 H 0.0 **** 0.06
34229 H 4.9243991389112125 109.24025447609176 116.320687092974 H 0.0 **** 0.06
34230 H 3.667869397851433 108.27761085708892 117.13555838796492 H 0.0 **** 0.06
34231 C 69.16900799697399 20.50473849678754 44.943578950514166 C 0.0 **** -0.24
34232 H 69.90669898714243 20.861172874273095 44.22527456102433 H 0.0 **** 0.06
34233 H 68.73163730851697 19.57330215659681 44.58296423172824 H 0.0 **** 0.06
34234 H 68.38632785804649 21.253284129813387 45.061391819186774 H 0.0 **** 0.06
34235 H 69.65288523386717 20.33047368863405 45.90426374104889 H 0.0 **** 0.06
34236 C 100.14367968463884 39.9563353696704 12.326983537012211 C 0.0 **** -0.24
34237 H 99.46201056363955 39.81965375149309 13.165729615761762 H 0.0 **** 0.06
34238 H 101.13712213929483 40.20070425653631 12.702484028275848 H 0.0 **** 0.06
34239 H 99.78410763719509 40.76778364141978 11.69472384405266 H 0.0 **** 0.06
34240 H 100.19145473006247 39.03622207539411 11.743975119705794 H 0.0 **** 0.06
34241 C 60.45407437331312 31.745253339949272 60.6548788860846 C 0.0 **** -0.24
34242 H 60.08489164642495 32.739943956880325 60.404922085457855 H 0.0 **** 0.06
34243 H 61.53332407094739 31.787078332762917 60.805671888850995 H 0.0 **** 0.06
34244 H 60.226836951982534 31.05784396001218 59.83978488561014 H 0.0 **** 0.06
34245 H 59.97204060338643 31.397641249289336 61.568770018243825 H 0.0 **** 0.06
34246 C 39.660009340073174 114.17221413261021 61.491558830506335 C 0.0 **** -0.24
34247 H 39.73261209571538 113.12735189105109 61.19168655715748 H 0.0 **** 0.06
34248 H 39.864885044961994 114.81187551471375 60.632585597113774 H 0.0 **** 0.06
34249 H 40.38667057589001 114.37658771155229 62.278929571909856 H 0.0 **** 0.06
34250 H 38.655433775762816 114.37458808881038 61.86488241578715 H 0.0 **** 0.06
34251 C 26.52006348223464 25.79469837820931 78.48102345456873 C 0.0 **** -0.24
34252 H 27.095319935620523 25.86643134873681 79.40351954951754 H 0.0 **** 0.06
34253 H 25.484963002915066 26.073968397199536 78.67514688948532 H 0.0 **** 0.06
34254 H 26.55756241349644 24.770123561794442 78.10853307932788 H 0.0 **** 0.06
34255 H 26.9449338615385 26.467418932558502 77.73519171108788 H 0.0 **** 0.06
34256 C 68.11101555219608 33.286391311312684 91.99372622246747 C 0.0 **** -0.24
34257 H 67.03073642439313 33.145241561866925 92.03688289205863 H 0.0 **** 0.06
34258 H 68.4706293635794 33.03458345465677 90.9952581453665 H 0.0 **** 0.06
34259 H 68.59157658008348 32.638839562106284 92.72714802555757 H 0.0 **** 0.06
34260 H 68.35023954332775 34.32642950446191 92.21555982393946 H 0.0 **** 0.06
34261 C 105.1330273223694 98.51563847517323 76.39084504506845 C 0.0 **** -0.24
34262 H 104.23065468544974 97.90880567874676 76.31856593805601 H 0.0 **** 0.06
34263 H 105.78265868891901 98.10887023923469 77.16588143139136 H 0.0 **** 0.06
34264 H 104.86156826344671 99.5404736229839 76.64370982375652 H 0.0 **** 0.06
34265 H 105.656150119409 98.50425202742169 75.43431975600352 H 0.0 **** 0.06
34266 C 100.53692808678217 28.179806296122138 61.39904906367724 C 0.0 **** -0.24
34267 H 101.16712465145795 27.375839890906775 61.01803062915543 H 0.0 **** 0.06
34268 H 100.2926071646155 27.984748543921427 62.44419239001486 H 0.0 **** 0.06
34269 H 99.61864429116304 28.229176221276703 60.81393865979193 H 0.0 **** 0.06
34270 H 101.06970737130939 29.127306796470066 61.320507828780435 H 0.0 **** 0.06
34271 C 72.58531283907399 68.75882776569475 40.602105768701726 C 0.0 **** -0.24
34272 H 71.77980835565876 69.18265002726073 41.20196486475773 H 0.0 **** 0.06
34273 H 72.16805664219686 68.05747426017072 39.87878475284051 H 0.0 **** 0.06
34274 H 73.28664905388518 68.23525281536112 41.25285346626383 H 0.0 **** 0.06
34275 H 73.10531460902286 69.55831051881373 40.075403638354736 H 0.0 **** 0.06
34276 C 5.202181170050352 59.76997898530567 89.14918652282932 C 0.0 **** -0.24
34277 H 5.898491336496392 59.64009292281867 88.32085177361 H 0.0 **** 0.06
34278 H 5.676228116351865 59.446641481598164 90.07604847114789 H 0.0 **** 0.06
34279 H 4.307938500815396 59.1723627547109 88.96979409135935 H 0.0 **** 0.06
34280 H 4.92539024023128 60.821820500887526 89.22931756654214 H 0.0 **** 0.06
34281 C 105.96452616085611 67.64027302719595 51.90398350844015 C 0.0 **** -0.24
34282 H 106.30055155980295 68.081914243265 52.842186407076156 H 0.0 **** 0.06
34283 H 104.8910760737929 67.79513002809878 51.79337632621227 H 0.0 **** 0.06
34284 H 106.17874273044964 66.5715376498307 51.90894958147953 H 0.0 **** 0.06
34285 H 106.48755079716648 68.11130614564317 51.0721405545211 H 0.0 **** 0.06
34286 C 115.65300712585585 26.569472817529913 62.7998098454958 C 0.0 **** -0.24
34287 H 116.28309564675915 27.116955390047394 62.09871569682939 H 0.0 **** 0.06
34288 H 115.02657296211429 27.27184410792802 63.349144428803186 H 0.0 **** 0.06
34289 H 116.28254750538257 26.0193404559609 63.4991459584588 H 0.0 **** 0.06
34290 H 115.02248160482645 25.87042256720656 62.25067597773639 H 0.0 **** 0.06
34291 C 18.49083446034886 44.201192583602904 32.900238139210956 C 0.0 **** -0.24
34292 H 17.533727914380027 44.71848801563766 32.82515640959173 H 0.0 **** 0.06
34293 H 18.996275933636007 44.23215703007003 31.93465859137575 H 0.0 **** 0.06
34294 H 18.320499144733915 43.16431401466218 33.1879869146361 H 0.0 **** 0.06
34295 H 19.110143439571193 44.69055294671921 33.65166511942266 H 0.0 **** 0.06
34296 C 91.2917613331663 9.355670594473601 33.48783020610614 C 0.0 **** -0.24
34297 H 91.94773671337944 10.06881726841102 33.98775706770181 H 0.0 **** 0.06
34298 H 90.38971383896174 9.213987198600105 34.084365135388055 H 0.0 **** 0.06
34299 H 91.80923455283008 8.402261876316938 33.378600988128056 H 0.0 **** 0.06
34300 H 91.02117619316911 9.738480023750693 32.50414565708442 H 0.0 **** 0.06
34301 C 86.05264854816086 91.0539188383683 9.120530893213015 C 0.0 **** -0.24
34302 H 85.12792503954597 90.66661133328546 9.548994506979568 H 0.0 **** 0.06
34303 H 85.93056442704894 92.11351190572077 8.892437074696375 H 0.0 **** 0.06
34304 H 86.28451809603929 90.50923778492688 8.20622914982772 H 0.0 **** 0.06
34305 H 86.86449543464299 90.9274339610377 9.835943258055124 H 0.0 **** 0.06
34306 C 87.35200704925214 86.88155540530366 18.58995869193189 C 0.0 **** -0.24
34307 H 86.2638314639544 86.94672628679206 18.624764414419033 H 0.0 **** 0.06
34308 H 87.65152176712682 86.25846783012736 17.74726805295732 H 0.0 **** 0.06
34309 H 87.71808626585717 86.43983206634002 19.516984165092705 H 0.0 **** 0.06
34310 H 87.77164811702406 87.8798768597162 18.472088948486505 H 0.0 **** 0.06
34311 C 34.34598256475692 99.43750511725649 46.39493237995433 C 0.0 **** -0.24
34312 H 34.22864624142005 99.8246505432161 45.382033374875476 H 0.0 **** 0.06
34313 H 33.62151059680889 98.64053934608322 46.564990249153965 H 0.0 **** 0.06
34314 H 34.179514406707995 100.24014842126749 47.11227309495456 H 0.0 **** 0.06
34315 H 35.35521430280443 99.04383550137568 46.51771782792892 H 0.0 **** 0.06
34316 C 43.32601290995377 88.72313703085618 63.66305228363905 C 0.0 **** -0.24
34317 H 42.686758217186025 87.92814537969345 64.04859149509389 H 0.0 **** 0.06
34318 H 42.7983202187926 89.26463527478114 62.8775506514076 H 0.0 **** 0.06
34319 H 44.23895087102941 88.28883060653995 63.25621092755068 H 0.0 **** 0.06
34320 H 43.57769959590002 89.40893750713018 64.47112415418644 H 0.0 **** 0.06
34321 C 0.724148181065317 98.55767785195911 29.31358637295017 C 0.0 **** -0.24
34322 H 0.4396118386695349 97.58413003601379 29.71087511698886 H 0.0 **** 0.06
34323 H 0.2401384830296962 98.71221404145291 28.349287207248068 H 0.0 **** 0.06
34324 H 1.8062298052021504 98.59649324712603 29.18803783860264 H 0.0 **** 0.06
34325 H 0.411205762232413 99.33906033485187 30.00725938615375 H 0.0 **** 0.06
34326 C 81.91232932485818 16.477326911573755 89.71523261373505 C 0.0 **** -0.24
34327 H 81.4168852855647 15.603847910394151 90.14057296228776 H 0.0 **** 0.06
34328 H 82.34829962233066 16.21387082035193 88.75161677163163 H 0.0 **** 0.06
34329 H 82.69853748033313 16.8125771342134 90.39048711746005 H 0.0 **** 0.06
34330 H 81.18396850314268 17.275812649179244 89.57790568493192 H 0.0 **** 0.06
34331 C 105.34244258689289 106.50602106513634 38.991518665379374 C 0.0 **** -0.24
34332 H 105.67740737863735 107.51698212239951 38.75908363139342 H 0.0 **** 0.06
34333 H 104.9140269638815 106.05100118846796 38.098657166699894 H 0.0 **** 0.06
34334 H 104.5902322568933 106.54459240218058 39.77875530198554 H 0.0 **** 0.06
34335 H 106.19180315273903 105.9120608278076 39.32967927363546 H 0.0 **** 0.06
34336 C 69.8303297557344 92.09579897900488 107.36222350854285 C 0.0 **** -0.24
34337 H 70.84574821493129 92.47947464460373 107.26842591490767 H 0.0 **** 0.06
34338 H 69.25016033552924 92.38574883343038 106.48605158144534 H 0.0 **** 0.06
34339 H 69.36727974143554 92.51035345159923 108.25851646372402 H 0.0 **** 0.06
34340 H 69.85838570432193 91.00846216471915 107.43818576013315 H 0.0 **** 0.06
34341 C 3.389630653279056 86.57595107390591 48.65723910514964 C 0.0 **** -0.24
34342 H 2.534561467242739 87.09917336330773 48.2308006479723 H 0.0 **** 0.06
34343 H 4.067121527874235 87.29767376817699 49.11340592457897 H 0.0 **** 0.06
34344 H 3.91335713756375 86.03331035221993 47.87007308790359 H 0.0 **** 0.06
34345 H 3.044004756483673 85.87238803319997 49.41429885656771 H 0.0 **** 0.06
34346 C 104.18930039723307 122.33591754187634 99.28777227540576 C 0.0 **** -0.24
34347 H 104.06086111554009 121.25815637434374 99.19161156932495 H 0.0 **** 0.06
34348 H 104.95647963858579 122.54573470294088 100.03393482089729 H 0.0 **** 0.06
34349 H 103.24791019466812 122.78795749755625 99.59780129894222 H 0.0 **** 0.06
34350 H 104.49398344517908 122.75208045590861 98.32684644787514 H 0.0 **** 0.06
34351 C 121.75051687410783 20.22614054103653 75.51353675176357 C 0.0 **** -0.24
34352 H 121.62845007742284 19.935356437830038 74.47030619596589 H 0.0 **** 0.06
34353 H 121.82743385543425 19.332361091334434 76.13271344886202 H 0.0 **** 0.06
34354 H 120.88750024910827 20.81359063914536 75.82946471862371 H 0.0 **** 0.06
34355 H 122.65576048337327 20.823567335165876 75.62106317760488 H 0.0 **** 0.06
34356 C 21.220663480861475 66.60321491534614 59.466061899580964 C 0.0 **** -0.24
34357 H 21.595686223024217 65.57949091020294 59.47268331078227 H 0.0 **** 0.06
34358 H 20.963514900051138 66.90237120237668 60.48258335782235 H 0.0 **** 0.06
34359 H 20.334180591353203 66.66158559967886 58.83439294705417 H 0.0 **** 0.06
34360 H 21.99054432345386 67.26899685111186 59.07504572248881 H 0.0 **** 0.06
34361 C 102.72271904339013 71.96801306253803 3.5309091054085116 C 0.0 **** -0.24
34362 H 102.36911090545037 72.89877290952951 3.0870520191980546 H 0.0 **** 0.06
34363 H 101.8988734473958 71.25577954398004 3.5843843012355023 H 0.0 **** 0.06
34364 H 103.10028676236506 72.16423287794088 4.534206710945938 H 0.0 **** 0.06
34365 H 103.52213533437194 71.55409791321367 2.915971243962815 H 0.0 **** 0.06
34366 C 44.69610809985534 75.01848767082805 107.59040151655398 C 0.0 **** -0.24
34367 H 44.03274596804334 75.5180981547704 108.29734764237443 H 0.0 **** 0.06
34368 H 45.160170712752915 74.15848446234915 108.07389517029154 H 0.0 **** 0.06
34369 H 45.46950395040278 75.71451063193058 107.26494241767975 H 0.0 **** 0.06
34370 H 44.12190299195544 74.68449470162341 106.72693997754544 H 0.0 **** 0.06
34371 C 4.796193082385713 31.525261693029933 66.49008618593278 C 0.0 **** -0.24
34372 H 4.400924344398078 30.805641238847244 67.20709227961882 H 0.0 **** 0.06
34373 H 4.7143685134428495 31.11684639184776 65.48223428658713 H 0.0 **** 0.06
34374 H 5.8433060996624135 31.7256223745963 66.71658700745596 H 0.0 **** 0.06
34375 H 4.22676277603685 32.45256153060788 66.55514661002479 H 0.0 **** 0.06
34376 C 24.913582385880133 111.09398296201806 98.92840361765457 C 0.0 **** -0.24
34377 H 25.873809055132696 111.06253057922271 98.412841558069 H 0.0 **** 0.06
34378 H 24.141436904492537 110.67534213618165 98.281834984344 H 0.0 **** 0.06
34379 H 24.66457267883993 112.12695482383026 99.17176346244663 H 0.0 **** 0.06
34380 H 24.974775421856293 110.50904272917455 99.84634973048401 H 0.0 **** 0.06
34381 C 21.057224379872764 123.87623034227903 104.92095787176888 C 0.0 **** -0.24
34382 H 21.39485483845148 123.28862337231544 104.06686392832634 H 0.0 **** 0.06
34383 H 21.517854797023432 124.86358177924649 104.88727598026375 H 0.0 **** 0.06
34384 H 21.345059127957768 123.3716395748217 105.84392541619701 H 0.0 **** 0.06
34385 H 19.973481111474243 123.9787386079334 104.8857415221411 H 0.0 **** 0.06
34386 C 96.89278152724708 89.61319928496034 64.12644499789752 C 0.0 **** -0.24
34387 H 97.2414103647126 88.66778688050542 63.70892600402361 H 0.0 **** 0.06
34388 H 95.81114870223243 89.5744649561973 64.25792816672606 H 0.0 **** 0.06
34389 H 97.14812054538979 90.42570461567044 63.44729059673648 H 0.0 **** 0.06
34390 H 97.37005566715635 89.78157213496176 65.09122975317133 H 0.0 **** 0.06
34391 C 111.27997659399391 75.81593800806613 119.4788483353017 C 0.0 **** -0.24
34392 H 111.5000766742398 76.81960767549236 119.84185499077395 H 0.0 **** 0.06
34393 H 110.23372553474171 75.75963655005584 119.178379412809 H 0.0 **** 0.06
34394 H 111.46969298461661 75.09267549514303 120.27215833384486 H 0.0 **** 0.06
34395 H 111.91740005301904 75.59183571613843 118.6228516847159 H 0.0 **** 0.06
34396 C 70.80258908950341 104.19543239450778 59.84498899839356 C 0.0 **** -0.24
34397 H 70.30793853162496 104.0972712339867 60.81078704375909 H 0.0 **** 0.06
34398 H 70.87027907689475 103.21604384438993 59.37034292751578 H 0.0 **** 0.06
34399 H 71.80368667639803 104.6003935905809 59.98798438192058 H 0.0 **** 0.06
34400 H 70.2259804408771 104.86787892794521 59.20914713214712 H 0.0 **** 0.06
34401 C 101.81859834690013 35.24674894383189 117.11927631039984 C 0.0 **** -0.24
34402 H 102.40407646221361 35.757890090430806 116.35477396647809 H 0.0 **** 0.06
34403 H 101.41627111305978 34.32065832753751 116.70840688307976 H 0.0 **** 0.06
34404 H 100.99947542926996 35.89037559062284 117.43946855424977 H 0.0 **** 0.06
34405 H 102.45654658171925 35.0180759375695 117.97340946808123 H 0.0 **** 0.06
34406 C 61.03709948436676 86.02949357700622 68.79373850858889 C 0.0 **** -0.24
34407 H 61.70299014447224 86.82582372492597 69.12672897268966 H 0.0 **** 0.06
34408 H 61.09332137548182 85.93976894001086 67.70832183194241 H 0.0 **** 0.06
34409 H 60.01491332271573 86.26496397795023 69.08718485487302 H 0.0 **** 0.06
34410 H 61.34012794728497 85.0879047406208 69.25289750291144 H 0.0 **** 0.06
34411 C 4.70132495647681 5.380375180788121 38.131962520349134 C 0.0 **** -0.24
34412 H 3.642180248498562 5.1274693876707715 38.19422756766907 H 0.0 **** 0.06
34413 H 4.988475548810641 5.958021642915867 39.009709481062444 H 0.0 **** 0.06
34414 H 4.8810167453953 5.970171127626003 37.23316315282874 H 0.0 **** 0.06
34415 H 5.291381412502119 4.465304041663188 38.08911562812608 H 0.0 **** 0.06
34416 C 17.770272033334976 39.59661802841189 85.60294575121159 C 0.0 **** -0.24
34417 H 18.660583897492103 38.97604441978539 85.70540987487777 H 0.0 **** 0.06
34418 H 17.9887475042801 40.60507753713763 85.95708796009733 H 0.0 **** 0.06
34419 H 16.961037842786965 39.17074280096557 86.19536449974835 H 0.0 **** 0.06
34420 H 17.473221554813847 39.63549084566078 84.55489869737687 H 0.0 **** 0.06
34421 C 116.72813697771682 56.96808332426396 4.6343328291728625 C 0.0 **** -0.24
34422 H 117.26495901619967 57.82546311123389 4.227388424189584 H 0.0 **** 0.06
34423 H 116.72160596061218 57.027409667384006 5.722317844443353 H 0.0 **** 0.06
34424 H 117.22238932489563 56.04901026246063 4.321934126447189 H 0.0 **** 0.06
34425 H 115.70288977437195 56.97344540369298 4.26294599568179 H 0.0 **** 0.06
34426 C 117.52908498572052 105.17460174035173 112.18224679231778 C 0.0 **** -0.24
34427 H 118.12343734938014 104.44460973741234 112.73225195576234 H 0.0 **** 0.06
34428 H 117.24942110222892 104.75878921893589 111.21381929758505 H 0.0 **** 0.06
34429 H 118.11469336116022 106.08167751491892 112.03222651469272 H 0.0 **** 0.06
34430 H 116.6294571827668 105.41157371940312 112.74947845398074 H 0.0 **** 0.06
34431 C 62.541425991660816 86.49409248960066 6.563463239570854 C 0.0 **** -0.24
34432 H 63.055501240415595 86.78273041171916 7.480912180761376 H 0.0 **** 0.06
34433 H 63.17448664766982 86.72000089234035 5.70566531438336 H 0.0 **** 0.06
34434 H 61.606500606302376 87.04789784645206 6.48188001722454 H 0.0 **** 0.06
34435 H 62.33027500536156 85.42477568960187 6.588031051897271 H 0.0 **** 0.06
34436 C 80.56809298454854 96.02189047431628 10.425376555212608 C 0.0 **** -0.24
34437 H 80.72738588685638 96.75202972619664 9.632413689472898 H 0.0 **** 0.06
34438 H 81.33981440985997 96.13692234799095 11.186686237033669 H 0.0 **** 0.06
34439 H 80.61595867080442 95.01681076560595 10.007906448289802 H 0.0 **** 0.06
34440 H 79.58797155246924 96.18231452096163 10.874939488500843 H 0.0 **** 0.06
34441 C 46.21461755789537 29.627614313343827 64.15654626201892 C 0.0 **** -0.24
34442 H 45.682388229451426 30.33763226996092 63.52361408190748 H 0.0 **** 0.06
34443 H 46.59664546753842 28.810907783324637 63.544250733552204 H 0.0 **** 0.06
34444 H 45.532730043736905 29.23007856804017 64.90850867802676 H 0.0 **** 0.06
34445 H 47.04498234200625 30.13195611622973 64.64969463971802 H 0.0 **** 0.06
34446 C 8.392552881472398 50.389034065403735 99.41372289565993 C 0.0 **** -0.24
34447 H 9.263645911799756 50.86508564947137 99.86334885298498 H 0.0 **** 0.06
34448 H 7.700664261598547 51.15614315661344 99.06473216088057 H 0.0 **** 0.06
34449 H 7.89813889338302 49.76262580465834 100.15554845101974 H 0.0 **** 0.06
34450 H 8.708411925629889 49.77463789761279 98.57109897280267 H 0.0 **** 0.06
34451 C 60.311622258417884 29.58454704099114 108.24061841154622 C 0.0 **** -0.24
34452 H 59.279700535387164 29.406204677350388 107.93656361323582 H 0.0 **** 0.06
34453 H 60.49916065358235 30.65833572430455 108.2765766535486 H 0.0 **** 0.06
34454 H 60.98697466578864 29.121854907562692 107.52191906681446 H 0.0 **** 0.06
34455 H 60.47906827005215 29.152432799516532 109.22769483970455 H 0.0 **** 0.06
34456 C 7.947848369218775 37.34685471643368 96.92265207131749 C 0.0 **** -0.24
34457 H 8.33082113673538 36.48703242860904 97.47093586462572 H 0.0 **** 0.06
34458 H 6.952042181489759 37.59820828914866 97.28964961864173 H 0.0 **** 0.06
34459 H 7.894025731234706 37.10596626160407 95.86090653223883 H 0.0 **** 0.06
34460 H 8.614294683576134 38.197433524382205 97.06843530328578 H 0.0 **** 0.06
34461 C 81.80516123210913 47.84225134448968 37.50280383946168 C 0.0 **** -0.24
34462 H 81.37176642449754 48.29601878284373 36.6118326104602 H 0.0 **** 0.06
34463 H 81.76323180847095 48.5520079316679 38.329668566766344 H 0.0 **** 0.06
34464 H 82.843962145337 47.574641507172146 37.306502014179415 H 0.0 **** 0.06
34465 H 81.24209520622804 46.946249274591224 37.76456262770566 H 0.0 **** 0.06
34466 C 122.90961019438446 8.569002844518078 64.12616117055764 C 0.0 **** -0.24
34467 H 123.95662242596632 8.833897089464685 64.27632833949346 H 0.0 **** 0.06
34468 H 122.29952916449545 9.050690216138687 64.89139395293905 H 0.0 **** 0.06
34469 H 122.7944164440947 7.487064315690105 64.1970707535494 H 0.0 **** 0.06
34470 H 122.5878727429815 8.904359756778732 63.13985163624868 H 0.0 **** 0.06
34471 C 28.55919694779834 121.75595216056854 47.81785327355592 C 0.0 **** -0.24
34472 H 28.76632068688187 121.04423156269296 48.6180447149162 H 0.0 **** 0.06
34473 H 27.511508238138873 122.05605950771462 47.86250460157287 H 0.0 **** 0.06
34474 H 28.76271104792275 121.28954700582048 46.85487619603147 H 0.0 **** 0.06
34475 H 29.19479887081164 122.63320366151676 47.939351085753394 H 0.0 **** 0.06
34476 C 93.8118171902774 103.1501654810954 15.967308940986243 C 0.0 **** -0.24
34477 H 93.64041347116637 102.18489212851199 16.444792848194922 H 0.0 **** 0.06
34478 H 92.86178802888674 103.67542775837882 15.861441460819862 H 0.0 **** 0.06
34479 H 94.25321933570615 102.99421126801965 14.982828290949897 H 0.0 **** 0.06
34480 H 94.48990625717317 103.74309272082277 16.580143461994567 H 0.0 **** 0.06
34481 C 116.66331810634757 29.907024703165632 24.7525262407151 C 0.0 **** -0.24
34482 H 115.96277660722113 29.979819555686504 25.585165593125453 H 0.0 **** 0.06
34483 H 116.41435038659782 29.037583955964976 24.144381068950054 H 0.0 **** 0.06
34484 H 117.67776671774763 29.803025771604496 25.139411268241872 H 0.0 **** 0.06
34485 H 116.59827938670547 30.808359291363843 24.143495369041375 H 0.0 **** 0.06
34486 C 77.1589041398712 123.65846635703681 54.59487953156038 C 0.0 **** -0.24
34487 H 77.47974195601742 124.6033560700933 55.03221141299642 H 0.0 **** 0.06
34488 H 76.41764321748511 123.1911339215632 55.24354691582772 H 0.0 **** 0.06
34489 H 78.01814844787727 122.99667713478428 54.48852670676018 H 0.0 **** 0.06
34490 H 76.7191509529422 123.8422860441706 53.61383251639933 H 0.0 **** 0.06
34491 C 55.49660968167041 25.95535537829401 86.25865234657026 C 0.0 **** -0.24
34492 H 56.27465802402378 25.580228904128326 85.59318059144076 H 0.0 **** 0.06
34493 H 55.63172600176978 25.528011471940488 87.25215245382721 H 0.0 **** 0.06
34494 H 54.518946698236164 25.670103507234792 85.87058128176861 H 0.0 **** 0.06
34495 H 55.56134887078235 27.0420828964888 86.31771904936447 H 0.0 **** 0.06
34496 C 9.815254730754873 16.94507215769488 21.323253769204 C 0.0 **** -0.24
34497 H 8.961170222833971 17.436560454500693 21.78913638600389 H 0.0 **** 0.06
34498 H 10.091910814538338 16.067479725076453 21.907269713664306 H 0.0 **** 0.06
34499 H 10.655890844735268 17.63745516948086 21.28477824494388 H 0.0 **** 0.06
34500 H 9.549520143574142 16.639250285611354 20.310279468234455 H 0.0 **** 0.06
34501 C 84.3916949313375 86.51974604184767 27.415304908495187 C 0.0 **** -0.24
34502 H 84.98678307088396 85.69020538836847 27.798072662787064 H 0.0 **** 0.06
34503 H 83.40205349875956 86.15695108188929 27.133252624332073 H 0.0 **** 0.06
34504 H 84.88444682209857 86.94669513814611 26.541695865471212 H 0.0 **** 0.06
34505 H 84.2930945411958 87.28279746405056 28.187577018408405 H 0.0 **** 0.06
34506 C 47.79054853413328 28.095076699442956 97.24781060719255 C 0.0 **** -0.24
34507 H 48.32844674569026 27.923015491675727 96.31530796204432 H 0.0 **** 0.06
34508 H 48.04385725781384 29.081642200952814 97.6362587029306 H 0.0 **** 0.06
34509 H 48.07208918287358 27.333872103934397 97.97463663412275 H 0.0 **** 0.06
34510 H 46.71789594556759 28.04132312667386 97.06207510261605 H 0.0 **** 0.06
34511 C 112.77465695162064 109.24070427539812 30.27825413289834 C 0.0 **** -0.24
34512 H 113.07209521839209 108.21711899773538 30.503765346660238 H 0.0 **** 0.06
34513 H 113.31449711847557 109.92876556209598 30.92908205544959 H 0.0 **** 0.06
34514 H 111.7028148946577 109.35140681682094 30.44185195245698 H 0.0 **** 0.06
34515 H 113.00845577982662 109.46591564360756 29.237193273521378 H 0.0 **** 0.06
34516 C 104.65493607042305 101.7775109602618 80.76807536149131 C 0.0 **** -0.24
34517 H 105.02389336718215 101.99887253583191 79.7671042240797 H 0.0 **** 0.06
34518 H 105.48466292933284 101.45078273740845 81.39646999942386 H 0.0 **** 0.06
34519 H 103.9072940927158 100.98663284046032 80.71270435131225 H 0.0 **** 0.06
34520 H 104.20516109254254 102.67403583829017 81.19658487565188 H 0.0 **** 0.06
34521 C 87.93165523985996 44.6272034315524 14.963873343416054 C 0.0 **** -0.24
34522 H 87.28593490729196 45.08851430233935 14.216665715941701 H 0.0 **** 0.06
34523 H 88.26457920612435 43.652414096835514 14.605288381525014 H 0.0 **** 0.06
34524 H 87.3779998623439 44.50177286032053 15.894382130272959 H 0.0 **** 0.06
34525 H 88.79820939021297 45.26470214073552 15.13918165681929 H 0.0 **** 0.06
34526 C 119.11959553650836 67.25807459819143 84.8227814893064 C 0.0 **** -0.24
34527 H 119.49195553195287 67.47020933486414 85.82556594012446 H 0.0 **** 0.06
34528 H 118.50534963912625 68.09211325605432 84.48084246693992 H 0.0 **** 0.06
34529 H 118.51915097002644 66.34889612767776 84.84336083475961 H 0.0 **** 0.06
34530 H 119.96145880282387 67.12342994700668 84.14364986381491 H 0.0 **** 0.06
34531 C 45.81678996862985 66.5924830516678 51.15115840066632 C 0.0 **** -0.24
34532 H 45.849723420681016 66.08759655224078 50.18591092162619 H 0.0 **** 0.06
34533 H 46.623292951797964 67.32402540163378 51.206217131549664 H 0.0 **** 0.06
34534 H 45.9358198074612 65.85887746450986 51.948985755662875 H 0.0 **** 0.06
34535 H 44.857356879990505 67.09841019830695 51.26366010252629 H 0.0 **** 0.06
34536 C 11.434043806908846 16.33608616430729 33.89112262858893 C 0.0 **** -0.24
34537 H 11.679953391616863 15.570973763223776 33.15438982360055 H 0.0 **** 0.06
34538 H 11.88989732323256 17.28150719104559 33.59884655290759 H 0.0 **** 0.06
34539 H 11.815980178978691 16.03504645912068 34.86697735531342 H 0.0 **** 0.06
34540 H 10.351863770665972 16.453944811231622 33.94494088524348 H 0.0 **** 0.06
34541 C 95.81666147213991 69.6492020618877 49.90165997944024 C 0.0 **** -0.24
34542 H 94.97025648714646 69.20729670360483 50.42716540145642 H 0.0 **** 0.06
34543 H 95.47627360822491 70.51059195158304 49.325345509236655 H 0.0 **** 0.06
34544 H 96.25149783117268 68.91068154242718 49.22815460426807 H 0.0 **** 0.06
34545 H 96.56785139026323 69.96837315638167 50.62442705834272 H 0.0 **** 0.06
34546 C 9.94075820188479 43.523556364978106 13.124675108573754 C 0.0 **** -0.24
34547 H 10.624246242206056 43.7154283317063 13.951548092806775 H 0.0 **** 0.06
34548 H 10.279179246437025 42.647450200274456 12.570146505388124 H 0.0 **** 0.06
34549 H 9.920967688973917 44.38854794493864 12.461600740021751 H 0.0 **** 0.06
34550 H 8.939757926791543 43.341487575464754 13.515232517755166 H 0.0 **** 0.06
34551 C 68.85302199968052 12.428462796964595 64.75584123979922 C 0.0 **** -0.24
34552 H 68.59843085254175 12.47597363932789 65.81478023334739 H 0.0 **** 0.06
34553 H 69.75380688743894 13.014368674300442 64.57248200876433 H 0.0 **** 0.06
34554 H 68.02995877743376 12.831402339424244 64.16661012678583 H 0.0 **** 0.06
34555 H 69.03053377003789 11.39103763522371 64.47222121659905 H 0.0 **** 0.06
34556 C 8.107187323895861 71.70972967966682 62.09219153213931 C 0.0 **** -0.24
34557 H 8.9110575070717 71.03854127069238 61.79044903196677 H 0.0 **** 0.06
34558 H 7.592523418218338 71.29303383909436 62.957477786033024 H 0.0 **** 0.06
34559 H 7.400649045581993 71.82301458589623 61.26929666859198 H 0.0 **** 0.06
34560 H 8.523688805851343 72.68295639464154 62.35034834537325 H 0.0 **** 0.06
34561 C 105.57716026302722 64.37247705266854 78.95027874723073 C 0.0 **** -0.24
34562 H 106.06292907843385 64.51446712651382 79.91605316406142 H 0.0 **** 0.06
34563 H 106.09390291917876 63.58854585292559 78.39628269233614 H 0.0 **** 0.06
34564 H 105.61385950714538 65.30365989337848 78.38522620995056 H 0.0 **** 0.06
34565 H 104.53806660894742 64.08284034403614 79.1068439507313 H 0.0 **** 0.06
34566 C 29.17217491280463 94.33522281136823 79.16439495156914 C 0.0 **** -0.24
34567 H 28.396891819005205 93.58878731931202 78.99234881500068 H 0.0 **** 0.06
34568 H 28.87285370092183 94.98570077672963 79.986250132782 H 0.0 **** 0.06
34569 H 29.310614327085098 94.93074111044132 78.26169831289478 H 0.0 **** 0.06
34570 H 30.107910583730977 93.83687863417316 79.41786200499423 H 0.0 **** 0.06
34571 C 116.77326493215205 13.846792344565372 90.08826858558166 C 0.0 **** -0.24
34572 H 117.67726949388427 14.021085713417847 90.67174375897444 H 0.0 **** 0.06
34573 H 115.9034876363508 13.889911059716624 90.74455891163123 H 0.0 **** 0.06
34574 H 116.82644979652046 12.863875741449192 89.62094322990102 H 0.0 **** 0.06
34575 H 116.68512764029707 14.612309148133988 89.31704256580784 H 0.0 **** 0.06
34576 C 36.2873705171595 57.79397538953319 0.5521477410995033 C 0.0 **** -0.24
34577 H 35.566374026583816 58.38551959918733 1.1171727534075444 H 0.0 **** 0.06
34578 H 35.94089331448387 56.76230229734573 0.4893472739724132 H 0.0 **** 0.06
34579 H 37.25390270016092 57.8230540723746 1.054376405670581 H 0.0 **** 0.06
34580 H 36.387689904544345 58.20629446446581 -0.4523604778482593 H 0.0 **** 0.06
34581 C 57.155528898333316 59.12581691320213 79.2265313538802 C 0.0 **** -0.24
34582 H 56.56128445371266 58.21323783057932 79.18664860438906 H 0.0 **** 0.06
34583 H 58.08913991467753 58.9750029324901 78.68526313952674 H 0.0 **** 0.06
34584 H 57.37309646448456 59.37188393546194 80.26590957501423 H 0.0 **** 0.06
34585 H 56.59709773954286 59.942365653488224 78.76937878089637 H 0.0 **** 0.06
34586 C 117.7249610171164 75.04833600475044 42.124473400508634 C 0.0 **** -0.24
34587 H 117.15654446980008 75.97861317516592 42.10553235360398 H 0.0 **** 0.06
34588 H 117.0362902290447 74.20268447157511 42.10033136940042 H 0.0 **** 0.06
34589 H 118.32123154695901 75.00615857846216 43.034901939648336 H 0.0 **** 0.06
34590 H 118.38260064681518 75.00758296032905 41.25611171361622 H 0.0 **** 0.06
34591 C 13.182483624156049 28.012515105678425 99.15626446046879 C 0.0 **** -0.24
34592 H 13.77392491854252 28.913762486060747 98.99568722871788 H 0.0 **** 0.06
34593 H 12.138631654893771 28.28568646688157 99.31282504314991 H 0.0 **** 0.06
34594 H 13.556347666702067 27.483888619642585 100.03326698982175 H 0.0 **** 0.06
34595 H 13.262356003023143 27.36619731265627 98.28155623451693 H 0.0 **** 0.06
34596 C 11.277436518734255 103.14291515411277 26.884812521722893 C 0.0 **** -0.24
34597 H 12.168921192255375 103.7605907869053 26.996278338227512 H 0.0 **** 0.06
34598 H 11.52164272584562 102.25466733048842 26.300917910407804 H 0.0 **** 0.06
34599 H 10.503410310081225 103.71387402920816 26.371533724989717 H 0.0 **** 0.06
34600 H 10.916438754315628 102.84422630487785 27.869226722900407 H 0.0 **** 0.06
34601 C 4.806252450176686 80.45435767819517 77.06037680760973 C 0.0 **** -0.24
34602 H 4.264054980031432 80.64056463216237 77.98762359175375 H 0.0 **** 0.06
34603 H 4.095463099997204 80.26299941089526 76.2568332872383 H 0.0 **** 0.06
34604 H 5.4548019592692185 79.58758748236407 77.18797646891501 H 0.0 **** 0.06
34605 H 5.410845085103887 81.32648924774286 76.81206256648964 H 0.0 **** 0.06
34606 C 8.637669750048275 74.6509248029335 28.190223710450006 C 0.0 **** -0.24
34607 H 8.129333369991485 74.95976096632012 29.104382410778477 H 0.0 **** 0.06
34608 H 8.656002954870232 75.48429609582041 27.48665993769088 H 0.0 **** 0.06
34609 H 8.106299589089815 73.8100330151255 27.7450906593444 H 0.0 **** 0.06
34610 H 9.658590617143204 74.35229325813282 28.426023275415382 H 0.0 **** 0.06
34611 C 77.17163983608287 60.31472518228759 112.95650792129172 C 0.0 **** -0.24
34612 H 76.26454587871746 59.782271901367864 112.669144377708 H 0.0 **** 0.06
34613 H 77.75468820599764 59.69516575123245 113.63907183923018 H 0.0 **** 0.06
34614 H 76.90403155869257 61.24819252729657 113.45079244392852 H 0.0 **** 0.06
34615 H 77.76220906883975 60.53107443203808 112.06699197335905 H 0.0 **** 0.06
34616 C 22.625855581927 101.8696353325412 73.71962918833256 C 0.0 **** -0.24
34617 H 23.624033009013573 101.79274791598695 74.1504050489595 H 0.0 **** 0.06
34618 H 22.365266951718183 100.92880430242614 73.23559178696544 H 0.0 **** 0.06
34619 H 22.60875534312109 102.67493536441309 72.98519460818791 H 0.0 **** 0.06
34620 H 21.90584113121406 102.08418624353637 74.50938155939491 H 0.0 **** 0.06
34621 C 29.815866541320787 58.66765697835504 73.56873127000173 C 0.0 **** -0.24
34622 H 29.7208170190777 58.647518127043114 72.48347845411186 H 0.0 **** 0.06
34623 H 30.632989426012443 59.332198027110564 73.8508591411933 H 0.0 **** 0.06
34624 H 30.02283808885585 57.6613535915056 73.93391481137091 H 0.0 **** 0.06
34625 H 28.8857105331262 59.02889100767173 74.00782181172649 H 0.0 **** 0.06
34626 C 67.66384516006818 35.91003458590707 68.79580111324387 C 0.0 **** -0.24
34627 H 68.10497856936897 36.877691758816994 68.55440791029805 H 0.0 **** 0.06
34628 H 67.99147928406674 35.1698538093752 68.0656990557225 H 0.0 **** 0.06
34629 H 66.57692401838736 35.98949759343463 68.77112762601556 H 0.0 **** 0.06
34630 H 67.98338286074116 35.60464941342039 69.79278773705668 H 0.0 **** 0.06
34631 C 34.7532771814754 2.2875240306842954 106.32514994822465 C 0.0 **** -0.24
34632 H 35.57220197244686 2.983046292199745 106.50690704214725 H 0.0 **** 0.06
34633 H 33.84902617535343 2.8458317766605745 106.08494955144971 H 0.0 **** 0.06
34634 H 34.58346284324284 1.6860929079007576 107.21818096666972 H 0.0 **** 0.06
34635 H 35.01056411217701 1.6348516617245537 105.49112662512744 H 0.0 **** 0.06
34636 C 99.20975878911793 104.12432050643946 5.705164152138877 C 0.0 **** -0.24
34637 H 98.39849691372433 103.95462651329359 6.413491658104562 H 0.0 **** 0.06
34638 H 99.90855625728 103.2881529769441 5.745694679334036 H 0.0 **** 0.06
34639 H 99.72995981224386 105.0463801096555 5.9632623001434695 H 0.0 **** 0.06
34640 H 98.8011588125035 104.2076215603214 4.698269579399977 H 0.0 **** 0.06
34641 C 105.84916958788322 11.632499505175844 76.15175302197441 C 0.0 **** -0.24
34642 H 105.11042095466229 12.424209511072263 76.27858937110639 H 0.0 **** 0.06
34643 H 106.85066283697955 12.060054347429087 76.20055711778326 H 0.0 **** 0.06
34644 H 105.7048533311903 11.153774744148024 75.18256356976698 H 0.0 **** 0.06
34645 H 105.72960847816128 10.89302548528903 76.94369559063864 H 0.0 **** 0.06
34646 C 91.27240689351397 26.990909091134583 89.15949545806892 C 0.0 **** -0.24
34647 H 90.60559069291595 27.244276696813557 88.33508855693869 H 0.0 **** 0.06
34648 H 91.0264960690691 27.604624299149634 90.02636236963623 H 0.0 **** 0.06
34649 H 92.30456250428412 27.17890143461659 88.86286199424158 H 0.0 **** 0.06
34650 H 91.15271463663429 25.938032794174504 89.41335946131302 H 0.0 **** 0.06
34651 C 25.251256390881252 42.01154811925525 93.58786536736605 C 0.0 **** -0.24
34652 H 24.626794391084744 41.207409318717424 93.19986323385075 H 0.0 **** 0.06
34653 H 25.198277716997012 42.02033416039785 94.67676977049989 H 0.0 **** 0.06
34654 H 24.896182950432774 42.96667179215106 93.19941409753095 H 0.0 **** 0.06
34655 H 26.28295039365149 41.85275871838704 93.27481091289658 H 0.0 **** 0.06
34656 C 106.07980669724684 47.27976182730208 20.435659392606567 C 0.0 **** -0.24
34657 H 106.86028630813757 46.68984666238441 20.916149119614033 H 0.0 **** 0.06
34658 H 105.65083711159326 46.7106647844692 19.61035314246942 H 0.0 **** 0.06
34659 H 106.50907960523399 48.20620332387011 20.053062115558873 H 0.0 **** 0.06
34660 H 105.3006390074529 47.51230999403151 21.16152698822873 H 0.0 **** 0.06
34661 C 102.95845516205068 3.9523404953497163 58.01392564647074 C 0.0 **** -0.24
34662 H 102.17518176988821 4.707145035367176 57.94219265455055 H 0.0 **** 0.06
34663 H 102.52283217769579 3.007060785695259 58.337858666081246 H 0.0 **** 0.06
34664 H 103.70809195563882 4.274946309370222 58.73667518075226 H 0.0 **** 0.06
34665 H 103.42601768981396 3.821127412316372 57.03746664530675 H 0.0 **** 0.06
34666 C 77.73601358899649 106.91161756041146 47.28900443353415 C 0.0 **** -0.24
34667 H 77.74903523185944 106.4444925350939 48.273397300833224 H 0.0 **** 0.06
34668 H 76.77947865191304 106.71145373893421 46.805016697826616 H 0.0 **** 0.06
34669 H 78.54351103174524 106.50217607118583 46.68136943003543 H 0.0 **** 0.06
34670 H 77.87106071007811 107.98788584938455 47.39487480743497 H 0.0 **** 0.06
34671 C 7.659871066025886 3.081796637258833 21.828087365506235 C 0.0 **** -0.24
34672 H 6.625802033856331 2.7364538352470618 21.844222153643216 H 0.0 **** 0.06
34673 H 8.1991248396007 2.574608347426647 21.027494359875618 H 0.0 **** 0.06
34674 H 8.13241889240473 2.8567364522353955 22.783969235007305 H 0.0 **** 0.06
34675 H 7.680678559703011 4.157514150846794 21.65606545571245 H 0.0 **** 0.06
34676 C 7.871534084079485 108.06697386661445 6.107580361948237 C 0.0 **** -0.24
34677 H 7.410273071952773 108.81771860433318 5.466286124001044 H 0.0 **** 0.06
34678 H 7.9019479191507 108.43427698914273 7.133888394545238 H 0.0 **** 0.06
34679 H 8.885922724107843 107.86798811943896 5.762389042741717 H 0.0 **** 0.06
34680 H 7.287091624224871 107.14751239711237 6.06792751163627 H 0.0 **** 0.06
34681 C 70.15773799955167 91.74847105315649 8.91958847844019 C 0.0 **** -0.24
34682 H 69.10637471006811 92.02907699472462 8.84426692785377 H 0.0 **** 0.06
34683 H 70.61462323117718 92.27609016267564 9.7571030704432 H 0.0 **** 0.06
34684 H 70.67183378925591 92.0167899507478 7.996461610641166 H 0.0 **** 0.06
34685 H 70.23537790830693 90.67325242729771 9.079671704687975 H 0.0 **** 0.06
34686 C 45.354715551910886 24.857547408700533 23.653780733160374 C 0.0 **** -0.24
34687 H 45.00947567726567 24.20241928995481 24.454327637502956 H 0.0 **** 0.06
34688 H 45.23751889576633 25.8973508118844 23.95900611356791 H 0.0 **** 0.06
34689 H 44.76430841557945 24.674260058254546 22.755421157165983 H 0.0 **** 0.06
34690 H 46.40529444475962 24.654192194227704 23.44640100348778 H 0.0 **** 0.06
34691 C 123.07115364554315 50.24436731506283 82.99989956829961 C 0.0 **** -0.24
34692 H 123.11920619621577 50.34043025922682 81.91514725705332 H 0.0 **** 0.06
34693 H 123.71635935424969 50.992559220964175 83.45992581884121 H 0.0 **** 0.06
34694 H 123.4058617773163 49.24876318765194 83.29092463086926 H 0.0 **** 0.06
34695 H 122.04471176449506 50.393805033137724 83.33345179869718 H 0.0 **** 0.06
34696 C 86.86139593759697 62.240002517938066 18.83380081945114 C 0.0 **** -0.24
34697 H 87.0497394788485 62.55464760723923 19.861083631301227 H 0.0 **** 0.06
34698 H 86.10139954873279 61.45824628867295 18.826841608012927 H 0.0 **** 0.06
34699 H 87.78302161665636 61.85460430191122 18.398048580288076 H 0.0 **** 0.06
34700 H 86.5118516348308 63.09208957675081 18.252168592577718 H 0.0 **** 0.06
34701 C 108.17378897335601 71.2985093295321 22.1782790853768 C 0.0 **** -0.24
34702 H 107.96217591443309 70.24017517153177 22.331584153271308 H 0.0 **** 0.06
34703 H 108.78717348417871 71.66828476199802 23.00138928835011 H 0.0 **** 0.06
34704 H 107.23773801471697 71.85487577693746 22.142675333805414 H 0.0 **** 0.06
34705 H 108.71092021011401 71.42856201386736 21.23860357885735 H 0.0 **** 0.06
34706 C 82.04001710940912 29.077696936742484 111.44176295190053 C 0.0 **** -0.24
34707 H 81.71336752846298 30.099722335820275 111.24779160702153 H 0.0 **** 0.06
34708 H 81.41020587383326 28.383180558914944 110.88459009886671 H 0.0 **** 0.06
34709 H 81.95952373147355 28.867179142867087 112.5073729584911 H 0.0 **** 0.06
34710 H 83.07649820164607 28.96113239643836 111.12568646842504 H 0.0 **** 0.06
34711 C 115.54618313232504 46.18165006924727 81.62501280524805 C 0.0 **** -0.24
34712 H 114.68273500693415 46.73321784552326 81.99640075382621 H 0.0 **** 0.06
34713 H 116.057458719608 46.7746194610811 80.86630185169713 H 0.0 **** 0.06
34714 H 115.21491551529687 45.23986060443207 81.18878463346346 H 0.0 **** 0.06
34715 H 116.2297782471465 45.97957044422867 82.44980081916549 H 0.0 **** 0.06
34716 C 60.83611368024185 27.806417973352126 85.54812318637651 C 0.0 **** -0.24
34717 H 60.70012769558775 28.49603178993459 84.71562018315193 H 0.0 **** 0.06
34718 H 61.7062444044642 28.107878804118414 86.1314486586314 H 0.0 **** 0.06
34719 H 60.98764823576255 26.797923507411554 85.16284157872296 H 0.0 **** 0.06
34720 H 59.94911989579049 27.822954156210642 86.1818812782979 H 0.0 **** 0.06
34721 C 38.55673644434302 29.795866061198538 15.26373128179533 C 0.0 **** -0.24
34722 H 39.01063158634474 30.260899946057222 16.138840070772446 H 0.0 **** 0.06
34723 H 39.298605874100986 29.179664981755195 14.75447716422255 H 0.0 **** 0.06
34724 H 38.20031584161342 30.571442454090075 14.584979204959495 H 0.0 **** 0.06
34725 H 37.718985837348555 29.17264223048005 15.575600888986742 H 0.0 **** 0.06
34726 C 24.181082217484004 49.524727515580736 106.45877348324404 C 0.0 **** -0.24
34727 H 24.692476425529037 48.59115948573691 106.2261894024752 H 0.0 **** 0.06
34728 H 23.499350996047895 49.366957261521435 107.2942953420781 H 0.0 **** 0.06
34729 H 23.61803053235161 49.85729465067334 105.58664068649415 H 0.0 **** 0.06
34730 H 24.916687755782164 50.28378541914799 106.727907993739 H 0.0 **** 0.06
34731 C 14.02691807020966 56.537743358757666 39.643855413463065 C 0.0 **** -0.24
34732 H 13.606246672309368 55.658554858808344 39.15618150049179 H 0.0 **** 0.06
34733 H 13.377786321018107 57.39634687879179 39.46843095305211 H 0.0 **** 0.06
34734 H 15.01724282539854 56.7411138042974 39.235244229255045 H 0.0 **** 0.06
34735 H 14.107224794187402 56.355408686968474 40.715897693934686 H 0.0 **** 0.06
34736 C 106.83423993658033 72.46491882723063 76.62336277548101 C 0.0 **** -0.24
34737 H 107.67604642536489 72.68261462522435 75.96594503252041 H 0.0 **** 0.06
34738 H 105.9076527822927 72.50557913309797 76.05189919693814 H 0.0 **** 0.06
34739 H 106.80029199698427 73.20247799969462 77.42542681928299 H 0.0 **** 0.06
34740 H 106.9557738027427 71.46922849888892 77.05046349234937 H 0.0 **** 0.06
34741 C 58.65029239295842 98.83337386089795 107.34968988943979 C 0.0 **** -0.24
34742 H 58.05715646837194 98.23605234131094 108.04133533611204 H 0.0 **** 0.06
34743 H 58.33666515968508 99.87583325692856 107.40825690486062 H 0.0 **** 0.06
34744 H 58.5022408193725 98.46592803748956 106.33384686673008 H 0.0 **** 0.06
34745 H 59.70412722465983 98.75537325471544 107.61392590628972 H 0.0 **** 0.06
34746 C 85.73697326491168 53.78914241587729 56.19693331562853 C 0.0 **** -0.24
34747 H 84.97487092937803 53.931588765303076 55.4304466549068 H 0.0 **** 0.06
34748 H 85.65988011757256 52.77953816692242 56.60243633486316 H 0.0 **** 0.06
34749 H 85.58805173635469 54.51515063141228 56.996468292259095 H 0.0 **** 0.06
34750 H 86.72442647706694 53.9299593899423 55.75717832693296 H 0.0 **** 0.06
34751 C 55.35852705471743 36.75320406540757 87.02810506779863 C 0.0 **** -0.24
34752 H 55.383393427636264 35.73898840201653 86.62942855275912 H 0.0 **** 0.06
34753 H 56.34718096380132 37.02131037612608 87.39979193505243 H 0.0 **** 0.06
34754 H 54.636595461744236 36.805471962763235 87.8425886502283 H 0.0 **** 0.06
34755 H 55.0662160547696 37.446401298744036 86.23859531741527 H 0.0 **** 0.06
34756 C 5.890311834234126 94.51345839545272 104.72445476669742 C 0.0 **** -0.24
34757 H 6.011207757482275 94.51514393974307 105.8077497607417 H 0.0 **** 0.06
34758 H 6.79192399667696 94.90887145693395 104.2578321494764 H 0.0 **** 0.06
34759 H 5.036970981300058 95.13578045048585 104.45381221856579 H 0.0 **** 0.06
34760 H 5.719538419656612 93.4932955056647 104.38084769649768 H 0.0 **** 0.06
34761 C 113.51725906562437 10.262318745747923 123.75530381142121 C 0.0 **** -0.24
34762 H 113.00109705447636 11.067839417449747 124.27900889121022 H 0.0 **** 0.06
34763 H 114.25941233427743 10.68750289338859 123.07867781218829 H 0.0 **** 0.06
34764 H 112.79511970773723 9.679760635255203 123.18402327134172 H 0.0 **** 0.06
34765 H 114.01285362741491 9.617324787791592 124.48037380228686 H 0.0 **** 0.06
34766 C 114.83476285279205 40.67130565379197 82.22089879863631 C 0.0 **** -0.24
34767 H 114.45440731972133 41.69263663216695 82.2031672419989 H 0.0 **** 0.06
34768 H 115.64487779790353 40.59844404076162 82.94760764943197 H 0.0 **** 0.06
34769 H 115.20896351404588 40.40539522880942 81.23189411768463 H 0.0 **** 0.06
34770 H 114.03257097218156 39.98968142336436 82.50093132987197 H 0.0 **** 0.06
34771 C 65.20058747938617 97.49327105905928 15.18017784221513 C 0.0 **** -0.24
34772 H 65.2485605659873 97.94967547697547 16.168780537293173 H 0.0 **** 0.06
34773 H 64.67018753993483 98.15851345236652 14.49821947524049 H 0.0 **** 0.06
34774 H 64.67233278509826 96.5418713488032 15.245777374391139 H 0.0 **** 0.06
34775 H 66.21181383254617 97.32273830119078 14.810083831849568 H 0.0 **** 0.06
34776 C 61.982484502215385 26.23982350935995 81.28255255915752 C 0.0 **** -0.24
34777 H 61.141365756288636 25.67670440302851 80.87697903131902 H 0.0 **** 0.06
34778 H 62.876215897986214 26.033665138729305 80.69285121620447 H 0.0 **** 0.06
34779 H 62.15296384762556 25.943998594995605 82.31717764202716 H 0.0 **** 0.06
34780 H 61.75815578429639 27.306066848941498 81.24172958700098 H 0.0 **** 0.06
34781 C 92.09737736866663 46.80337766224554 81.31835772627406 C 0.0 **** -0.24
34782 H 92.86048908567443 47.531576420391076 81.0416614297488 H 0.0 **** 0.06
34783 H 92.20974749466473 45.90870449597253 80.70463900078538 H 0.0 **** 0.06
34784 H 91.10906176971679 47.23389291147781 81.1556474622148 H 0.0 **** 0.06
34785 H 92.21035955653929 46.54069497089358 82.36971279616536 H 0.0 **** 0.06
34786 C 82.0470835012914 111.15124753525149 60.65552625960706 C 0.0 **** -0.24
34787 H 82.11666396771624 110.14892798374999 60.232439030836616 H 0.0 **** 0.06
34788 H 82.10534786367222 111.09114412497847 61.742203092409795 H 0.0 **** 0.06
34789 H 81.09750667158367 111.60168112570679 60.36666101725852 H 0.0 **** 0.06
34790 H 82.86850719364199 111.76118764995535 60.27949582943211 H 0.0 **** 0.06
34791 C 20.38403453876279 88.89699781746623 109.63127005779742 C 0.0 **** -0.24
34792 H 21.21769767998476 88.19656019304762 109.6737620728799 H 0.0 **** 0.06
34793 H 20.570206919768033 89.63535432988567 108.85049846275507 H 0.0 **** 0.06
34794 H 20.285491563339797 89.40258960622776 110.59229657942464 H 0.0 **** 0.06
34795 H 19.465149239065685 88.3552724856919 109.40865797625543 H 0.0 **** 0.06
34796 C 69.2094311763241 62.90443110074628 36.18896689017622 C 0.0 **** -0.24
34797 H 69.42972812035643 61.968990311541376 35.67521163479927 H 0.0 **** 0.06
34798 H 70.01701915896828 63.6151817385682 36.01041731878726 H 0.0 **** 0.06
34799 H 69.118749145708 62.71772887377361 37.25935223786385 H 0.0 **** 0.06
34800 H 68.27343019018875 63.315081947024254 35.81081120306047 H 0.0 **** 0.06
34801 C 24.229375579205282 58.698334340961566 20.667358680764124 C 0.0 **** -0.24
34802 H 24.42818104105237 57.79052372297022 20.096750200152464 H 0.0 **** 0.06
34803 H 24.248855644689172 58.467769378910646 21.732863759108923 H 0.0 **** 0.06
34804 H 23.248769456617424 59.08925668791545 20.397848010581434 H 0.0 **** 0.06
34805 H 24.992551397825707 59.44327853922934 20.443377680215995 H 0.0 **** 0.06
34806 C 94.0071983499779 18.434129870643005 14.826948021086288 C 0.0 **** -0.24
34807 H 93.439133102617 17.84258618309343 14.110071767186195 H 0.0 **** 0.06
34808 H 95.04623405045979 18.103584237449127 14.828721469835916 H 0.0 **** 0.06
34809 H 93.58300584828953 18.30352325167206 15.822455598113663 H 0.0 **** 0.06
34810 H 93.960998512961 19.48702219775012 14.547818914903015 H 0.0 **** 0.06
34811 C 64.27099467442093 6.985995127937258 17.865648649659335 C 0.0 **** -0.24
34812 H 65.30521980606437 7.3273076832027755 17.915366350555104 H 0.0 **** 0.06
34813 H 64.2494060933206 5.935132321559649 17.574100896639152 H 0.0 **** 0.06
34814 H 63.72814779042989 7.579420973332844 17.128868615789628 H 0.0 **** 0.06
34815 H 63.80215330417775 7.10259871796427 18.842564235431865 H 0.0 **** 0.06
34816 C 41.333947831597094 68.7945445571795 34.923829194487084 C 0.0 **** -0.24
34817 H 41.131044474092505 67.76190234917956 35.20529843264624 H 0.0 **** 0.06
34818 H 42.409248387375165 68.97038616160397 34.93926019861677 H 0.0 **** 0.06
34819 H 40.84499761686403 69.46601264290025 35.63007846922907 H 0.0 **** 0.06
34820 H 40.94916803295973 68.97994151206618 33.92021110618675 H 0.0 **** 0.06
34821 C 69.21105268231656 32.29750933268744 24.3976382345125 C 0.0 **** -0.24
34822 H 68.59185292672181 31.556746667325996 24.902875808155613 H 0.0 **** 0.06
34823 H 69.64253294011607 32.974148077339564 25.135623689743625 H 0.0 **** 0.06
34824 H 68.60022172984299 32.865022361742035 23.69660532686413 H 0.0 **** 0.06
34825 H 70.01159190201145 31.79321446165784 23.85592209456138 H 0.0 **** 0.06
34826 C 77.63410781444733 24.60515958360338 119.59258620709664 C 0.0 **** -0.24
34827 H 78.61996409215968 24.16184312456653 119.44545792830829 H 0.0 **** 0.06
34828 H 77.70750758113931 25.422168277360498 120.31025532787197 H 0.0 **** 0.06
34829 H 76.9490283161235 23.84718934139599 119.97262161265246 H 0.0 **** 0.06
34830 H 77.26240871772708 24.986818782772843 118.64207913160286 H 0.0 **** 0.06
34831 C 119.52435235313786 95.22568977927119 12.565878304092394 C 0.0 **** -0.24
34832 H 120.32239810316088 95.22726771833216 13.3086482711837 H 0.0 **** 0.06
34833 H 118.70047590323836 95.84808308054298 12.91699075311351 H 0.0 **** 0.06
34834 H 119.1709517347075 94.2064315334253 12.414302362849412 H 0.0 **** 0.06
34835 H 119.90415695072889 95.62255380925406 11.624001370322105 H 0.0 **** 0.06
34836 C 71.41182894678498 10.835337658838903 106.42299368459433 C 0.0 **** -0.24
34837 H 71.68997477233832 10.78887744296204 107.47534295837045 H 0.0 **** 0.06
34838 H 72.20132725056934 10.388134826993475 105.81847669004748 H 0.0 **** 0.06
34839 H 71.27496069915892 11.8763747292233 106.12945895495523 H 0.0 **** 0.06
34840 H 70.48171817700852 10.288767960252748 106.26731380010779 H 0.0 **** 0.06
34841 C 60.262066773180265 103.59730456582372 110.88299007946816 C 0.0 **** -0.24
34842 H 61.32611556497716 103.65075446698148 111.11123979575899 H 0.0 **** 0.06
34843 H 60.07340782896563 102.74411198618918 110.22937775304133 H 0.0 **** 0.06
34844 H 59.951635112076474 104.51395244586365 110.38132229648653 H 0.0 **** 0.06
34845 H 59.697510488938235 103.47834694726242 111.8078695328674 H 0.0 **** 0.06
34846 C 31.06874740698848 11.446270595006784 109.98360823601023 C 0.0 **** -0.24
34847 H 30.28608296003614 11.38803624450853 109.22801987929314 H 0.0 **** 0.06
34848 H 30.761228834203905 12.133616239040776 110.77281169139695 H 0.0 **** 0.06
34849 H 31.98972085979696 11.808102403197193 109.52502518014153 H 0.0 **** 0.06
34850 H 31.237975820394382 10.457547504682097 110.40884351755577 H 0.0 **** 0.06
34851 C 18.03561433990733 62.781608318698005 112.8663526997149 C 0.0 **** -0.24
34852 H 18.007460281733444 63.53374393071036 113.65445424807402 H 0.0 **** 0.06
34853 H 17.246807612217978 62.98521107608448 112.14110194717858 H 0.0 **** 0.06
34854 H 17.88395851016712 61.79421784349361 113.30077206908263 H 0.0 **** 0.06
34855 H 19.00515452738058 62.81389199151167 112.36776030194791 H 0.0 **** 0.06
34856 C 76.72831839868837 93.64212600989708 4.52413884502451 C 0.0 **** -0.24
34857 H 76.19747616682895 94.58216180288703 4.375987224412739 H 0.0 **** 0.06
34858 H 76.0740231850155 92.93179857430921 5.030144227595642 H 0.0 **** 0.06
34859 H 77.61384810735353 93.81824845976159 5.134209894529832 H 0.0 **** 0.06
34860 H 77.02716526951593 93.23666310055779 3.55828429975125 H 0.0 **** 0.06
34861 C 73.83943482270836 11.387565134140061 63.33001971129261 C 0.0 **** -0.24
34862 H 74.16616707863648 10.39524931064409 63.02137756982529 H 0.0 **** 0.06
34863 H 74.64441586511437 11.880994843555527 63.876417417183006 H 0.0 **** 0.06
34864 H 72.96494197812892 11.298341113122262 63.97373159577006 H 0.0 **** 0.06
34865 H 73.5834837759488 11.97611939501678 62.44898983001082 H 0.0 **** 0.06
34866 C 4.32358120097399 117.05071770326384 55.611660225190235 C 0.0 **** -0.24
34867 H 4.475663885662286 117.02654454637099 56.69067144660312 H 0.0 **** 0.06
34868 H 5.051631376540044 117.72217517779634 55.156225793941644 H 0.0 **** 0.06
34869 H 3.3158484246328896 117.40614658717442 55.394499648883595 H 0.0 **** 0.06
34870 H 4.450029373985842 116.04726616236078 55.20488561192218 H 0.0 **** 0.06
34871 C 33.5850473969648 49.58697976889728 2.7712190116394027 C 0.0 **** -0.24
34872 H 33.59852880409227 50.63797999098069 3.0583051374069044 H 0.0 **** 0.06
34873 H 34.074497561254205 48.99371387742313 3.543363302514024 H 0.0 **** 0.06
34874 H 34.113826217948514 49.46145277439516 1.8259694785224951 H 0.0 **** 0.06
34875 H 32.5530277329737 49.2546883143319 2.6558606730638985 H 0.0 **** 0.06
34876 C 3.268984520616442 1.0909961597798379 12.837157272160368 C 0.0 **** -0.24
34877 H 3.740649134924297 0.626697527450796 11.97065971345313 H 0.0 **** 0.06
34878 H 3.9832200723401456 1.1316240941269413 13.66054948941229 H 0.0 **** 0.06
34879 H 2.401369500621115 0.5050106173878692 13.136671390573923 H 0.0 **** 0.06
34880 H 2.953837096391794 2.1024195029182398 12.57973222733122 H 0.0 **** 0.06
34881 C 0.13851185702520752 55.94970121435051 48.981692178476024 C 0.0 **** -0.24
34882 H 1.084880969876309 56.30933604176522 48.57964377421564 H 0.0 **** 0.06
34883 H -0.01670767774567139 54.914940630305296 48.676724766993345 H 0.0 **** 0.06
34884 H -0.676046660754281 56.567199893995735 48.60118384881096 H 0.0 **** 0.06
34885 H 0.1611129339326851 56.008838989606716 50.07065347960375 H 0.0 **** 0.06
34886 C 100.37934569316012 119.4537525406555 104.83228322129041 C 0.0 **** -0.24
34887 H 100.9071229890498 120.4059884340908 104.88025831397466 H 0.0 **** 0.06
34888 H 100.4962984951011 119.02365742173971 103.83676173746767 H 0.0 **** 0.06
34889 H 99.32041857207409 119.6143248960876 105.03646602029283 H 0.0 **** 0.06
34890 H 100.79228361072515 118.77100530984112 105.57445784292074 H 0.0 **** 0.06
34891 C 113.73502674565083 36.56426036064586 72.9949164199505 C 0.0 **** -0.24
34892 H 114.50871437286702 35.839822332451114 73.24665166700939 H 0.0 **** 0.06
34893 H 113.97974538434252 37.527072933380595 73.44415853452219 H 0.0 **** 0.06
34894 H 112.77504151543926 36.21808384640339 73.37683767019482 H 0.0 **** 0.06
34895 H 113.67743600635389 36.672575023297334 71.91223645723178 H 0.0 **** 0.06
34896 C 65.75904574868805 28.25583869152971 122.68107416135913 C 0.0 **** -0.24
34897 H 66.69005539722983 28.74677713791239 122.39961523871364 H 0.0 **** 0.06
34898 H 65.96122203308525 27.496312898309874 123.43648798353544 H 0.0 **** 0.06
34899 H 65.31670152215347 27.78555644646184 121.80268249555576 H 0.0 **** 0.06
34900 H 65.06624451839649 28.994544446788176 123.0844461779864 H 0.0 **** 0.06
34901 C 60.965844173521674 88.22048903090581 60.233471854398516 C 0.0 **** -0.24
34902 H 60.98680210443334 87.18735251145618 60.5806251582129 H 0.0 **** 0.06
34903 H 61.96680228945249 88.64689203020342 60.300045444967196 H 0.0 **** 0.06
34904 H 60.28223306401483 88.79827841861815 60.855696085324126 H 0.0 **** 0.06
34905 H 60.626157888658526 88.24762174679437 59.19842126827781 H 0.0 **** 0.06
34906 C 54.08695335903451 18.883196402600674 86.70733567158067 C 0.0 **** -0.24
34907 H 54.31512979827494 19.431473078004217 87.62155114186902 H 0.0 **** 0.06
34908 H 53.834714662889326 19.588267392329442 85.91494670462725 H 0.0 **** 0.06
34909 H 53.24254437505053 18.217150391580788 86.88376942219412 H 0.0 **** 0.06
34910 H 54.95691872196309 18.296974688201544 86.40985101033488 H 0.0 **** 0.06
34911 C 117.58889922281924 89.41215248499813 49.65569577822221 C 0.0 **** -0.24
34912 H 118.61019876471028 89.39607522813131 49.2744852024965 H 0.0 **** 0.06
34913 H 117.34643008557606 88.44177942332439 50.08699434794422 H 0.0 **** 0.06
34914 H 116.90025849930768 89.6289784425042 48.83879236272629 H 0.0 **** 0.06
34915 H 117.50001963689672 90.18423440096157 50.420012234929274 H 0.0 **** 0.06
34916 C 58.675674367260086 120.59475512285101 85.74864089397691 C 0.0 **** -0.24
34917 H 59.52081642068873 121.10665006067434 86.20888451475942 H 0.0 **** 0.06
34918 H 58.043397543144266 120.16599534371457 86.52686890552654 H 0.0 **** 0.06
34919 H 59.041624653123705 119.7995581076724 85.09872872189655 H 0.0 **** 0.06
34920 H 58.096134460046045 121.30671600653751 85.16076342660791 H 0.0 **** 0.06
34921 C 107.99128691682907 38.49428115874333 73.63130213588715 C 0.0 **** -0.24
34922 H 107.43121362885591 38.8110583292259 74.51074218964601 H 0.0 **** 0.06
34923 H 107.35499436850938 37.87467288482415 72.99845290416442 H 0.0 **** 0.06
34924 H 108.86411490172159 37.92017922053714 73.94273751777763 H 0.0 **** 0.06
34925 H 108.31509353745122 39.371974065792145 73.07096277623464 H 0.0 **** 0.06
34926 C 26.1156519842109 117.92219707447401 57.328604312878696 C 0.0 **** -0.24
34927 H 27.033010808766562 117.367893820885 57.527670669966454 H 0.0 **** 0.06
34928 H 25.37496743096915 117.25084537721284 56.891619055515065 H 0.0 **** 0.06
34929 H 26.32556986325153 118.73440436994917 56.633458688009796 H 0.0 **** 0.06
34930 H 25.730064257173012 118.33204593378065 58.261467464262466 H 0.0 **** 0.06
34931 C 96.29868565686412 80.17777844746635 48.626237939977955 C 0.0 **** -0.24
34932 H 96.6060277264307 79.2670296526505 48.11249171959457 H 0.0 **** 0.06
34933 H 96.67430847474091 80.16231162526492 49.64967969146167 H 0.0 **** 0.06
34934 H 95.21040026785006 80.23813364511906 48.639271484264924 H 0.0 **** 0.06
34935 H 96.7042600867058 81.04398506057774 48.10216135667952 H 0.0 **** 0.06
34936 C 10.270008578579677 115.56504990819076 26.064919124401513 C 0.0 **** -0.24
34937 H 10.387693921773405 114.85054406515508 26.879241686089614 H 0.0 **** 0.06
34938 H 10.096794881646986 116.55972686517464 26.47706416558657 H 0.0 **** 0.06
34939 H 9.420526732802273 115.2743239505628 25.44606229674281 H 0.0 **** 0.06
34940 H 11.17492460694558 115.57579469632304 25.45828564470162 H 0.0 **** 0.06
34941 C 28.848687326378617 11.348678396789893 54.81226044984743 C 0.0 **** -0.24
34942 H 29.778238486292928 10.780474205000928 54.77577274426267 H 0.0 **** 0.06
34943 H 28.46775783588332 11.486334835470217 53.79969430289759 H 0.0 **** 0.06
34944 H 29.03560006902743 12.322033830241764 55.266181753509954 H 0.0 **** 0.06
34945 H 28.115061258719095 10.805614267076237 55.40625601874683 H 0.0 **** 0.06
34946 C 34.75670533542119 23.75890461701782 38.53297237090848 C 0.0 **** -0.24
34947 H 34.506012796559205 24.50026115124728 39.29130766377935 H 0.0 **** 0.06
34948 H 35.760665552085605 23.374898848085422 38.717494000600794 H 0.0 **** 0.06
34949 H 34.71915436281801 24.220485937332192 37.547111212116135 H 0.0 **** 0.06
34950 H 34.04078568542554 22.938050354096028 38.577481389361026 H 0.0 **** 0.06
34951 C 94.98677630016894 108.06291263861624 69.38633684716234 C 0.0 **** -0.24
34952 H 95.0459390135228 107.01407938894977 69.67580749192138 H 0.0 **** 0.06
34953 H 95.23162054798404 108.16232381730987 68.32905476744082 H 0.0 **** 0.06
34954 H 95.69400413554696 108.64360333377363 69.97945392602543 H 0.0 **** 0.06
34955 H 93.97620518914681 108.43169763175013 69.56177732679785 H 0.0 **** 0.06
34956 C 22.44906993100372 78.74487011693118 10.107393883881684 C 0.0 **** -0.24
34957 H 22.645349439772588 78.14397943637631 9.22000817573661 H 0.0 **** 0.06
34958 H 21.553134847252068 79.34591082093108 9.94754651954878 H 0.0 **** 0.06
34959 H 23.2978956789147 79.40150997839824 10.296435181919122 H 0.0 **** 0.06
34960 H 22.298826498742528 78.08939432091094 10.965237167777303 H 0.0 **** 0.06
34961 C 91.39364254709483 19.130776440827162 89.99553806148447 C 0.0 **** -0.24
34962 H 90.39833248351573 19.512688457201932 89.7672973498612 H 0.0 **** 0.06
34963 H 91.44870616657141 18.871979152037397 91.05393391426853 H 0.0 **** 0.06
34964 H 92.13669655605008 19.89586974751944 89.76846377798174 H 0.0 **** 0.06
34965 H 91.5894299715768 18.24356605178957 89.39419817216263 H 0.0 **** 0.06
34966 C 92.77525824795896 98.96952109852674 67.79159331954504 C 0.0 **** -0.24
34967 H 93.53558041167122 98.20949645238346 67.60872038847181 H 0.0 **** 0.06
34968 H 93.22884787234531 99.95935175845807 67.72927563738394 H 0.0 **** 0.06
34969 H 92.3505830541763 98.82669828058476 68.78557388473098 H 0.0 **** 0.06
34970 H 91.98720131152476 98.8821824888754 67.04349777061525 H 0.0 **** 0.06
34971 C 110.01505618029249 70.85076545180704 31.753342836717906 C 0.0 **** -0.24
34972 H 109.3664368907277 71.72648938288592 31.71699225647575 H 0.0 **** 0.06
34973 H 109.42770095165403 69.95521107704604 31.548662727894424 H 0.0 **** 0.06
34974 H 110.46365702139003 70.77217287445211 32.74324897266932 H 0.0 **** 0.06
34975 H 110.80122648572222 70.9497505223087 31.004953295436223 H 0.0 **** 0.06
34976 C 83.32666540095991 83.70828852643926 88.89023465329853 C 0.0 **** -0.24
34977 H 83.98235008573948 82.94176304362787 89.30196870188053 H 0.0 **** 0.06
34978 H 82.71857731929626 83.27701186504413 88.09469265999125 H 0.0 **** 0.06
34979 H 83.92882481646697 84.52289435415143 88.48640405417454 H 0.0 **** 0.06
34980 H 82.67757637134079 84.0924999139161 89.67714872229232 H 0.0 **** 0.06
34981 C 64.67844762515408 43.12735897967029 74.3823717880406 C 0.0 **** -0.24
34982 H 65.06740571456794 42.34054908323612 75.02846503372251 H 0.0 **** 0.06
34983 H 65.23963669224877 44.0461709283333 74.55130111848787 H 0.0 **** 0.06
34984 H 63.62601010353313 43.29650090067203 74.60957646994282 H 0.0 **** 0.06
34985 H 64.78074778614976 42.82481595854301 73.34035111236923 H 0.0 **** 0.06
34986 C 78.04386516826537 16.002180865566913 122.47933759399557 C 0.0 **** -0.24
34987 H 77.9800336057352 15.288636495035064 123.30128692849806 H 0.0 **** 0.06
34988 H 78.69348457162397 16.828749208329214 122.76552819519107 H 0.0 **** 0.06
34989 H 77.0484135245689 16.382986838161685 122.25125967847299 H 0.0 **** 0.06
34990 H 78.4528051546385 15.505126468178219 121.59899346531482 H 0.0 **** 0.06
34991 C 7.378709487106875 7.773698485601315 80.64984230336955 C 0.0 **** -0.24
34992 H 7.4084721802033755 8.863189264346605 80.6263742488684 H 0.0 **** 0.06
34993 H 7.348419426306577 7.389733898464922 79.62959602105633 H 0.0 **** 0.06
34994 H 6.490930324205721 7.445477456354293 81.18928994276024 H 0.0 **** 0.06
34995 H 8.269823010625714 7.397847601906442 81.15418900440088 H 0.0 **** 0.06
34996 C 39.66058607950171 5.314589752818534 20.99915438365113 C 0.0 **** -0.24
34997 H 39.03515307765153 4.652436451165208 21.597648541200755 H 0.0 **** 0.06
34998 H 40.596036626848985 4.809331113332899 20.756725543307766 H 0.0 **** 0.06
34999 H 39.87216910645742 6.223074830886542 21.562234433722665 H 0.0 **** 0.06
35000 H 39.13839460092831 5.572061745451499 20.077452717373006 H 0.0 **** 0.06
35001 C 39.26826789098385 112.26570748350663 42.42156397669734 C 0.0 **** -0.24
35002 H 39.87761518698909 113.16323188589908 42.3251615793922 H 0.0 **** 0.06
35003 H 38.978424339640895 112.13390155111146 43.46397349962311 H 0.0 **** 0.06
35004 H 39.8431657641313 111.39964130440866 42.09169796607142 H 0.0 **** 0.06
35005 H 38.374017611666375 112.36438419750793 41.80499270718357 H 0.0 **** 0.06
35006 C 113.19052196934115 93.74454958269177 116.66620234842827 C 0.0 **** -0.24
35007 H 112.48657568279634 92.91298628932148 116.68194331561129 H 0.0 **** 0.06
35008 H 114.1799373470887 93.38843051900218 116.95281204720041 H 0.0 **** 0.06
35009 H 112.86233441930455 94.51159641256767 117.3672620964991 H 0.0 **** 0.06
35010 H 113.23262089360793 94.16494986907678 115.66090485910401 H 0.0 **** 0.06
35011 C 47.709984669376325 2.3062613135596592 21.339938909367277 C 0.0 **** -0.24
35012 H 48.344272688226994 2.8711371895833224 22.023165567495994 H 0.0 **** 0.06
35013 H 46.9096297528024 2.949823917647336 20.97336566485862 H 0.0 **** 0.06
35014 H 47.280294283510614 1.4536668716744998 21.864803215370728 H 0.0 **** 0.06
35015 H 48.306922375633064 1.952848492629272 20.499255584001048 H 0.0 **** 0.06
35016 C 94.4742246304111 54.31020502788492 121.71717014212673 C 0.0 **** -0.24
35017 H 94.59203577309748 54.62203311861438 120.67919302024184 H 0.0 **** 0.06
35018 H 95.35953855724463 53.75693081171552 122.03227593035862 H 0.0 **** 0.06
35019 H 93.59530838740991 53.67183169241724 121.80600380054787 H 0.0 **** 0.06
35020 H 94.35010433691932 55.18916444974758 122.34833501779049 H 0.0 **** 0.06
35021 C 81.32769271910846 82.23550502614381 67.79404349079084 C 0.0 **** -0.24
35022 H 82.05198031113187 81.42069174314868 67.79148862551392 H 0.0 **** 0.06
35023 H 81.36278395100422 82.75530568592414 66.83621541271248 H 0.0 **** 0.06
35024 H 81.56861374734079 82.93242601162902 68.59597917253848 H 0.0 **** 0.06
35025 H 80.3279501022889 81.83121470578011 67.95261758365848 H 0.0 **** 0.06
35026 C 47.00832532640112 71.56407764717594 21.5684484956235 C 0.0 **** -0.24
35027 H 47.05490230647686 72.60742140911773 21.8825442701022 H 0.0 **** 0.06
35028 H 46.14430335909705 71.41805970125438 20.920662672017556 H 0.0 **** 0.06
35029 H 46.91701636579714 70.92425792757291 22.447032691012396 H 0.0 **** 0.06
35030 H 47.91842030556418 71.30815733926738 21.025474593816398 H 0.0 **** 0.06
35031 C 111.35400593448921 58.193933981730396 13.59738700733984 C 0.0 **** -0.24
35032 H 111.03008271649534 57.2743307545538 14.084177857171731 H 0.0 **** 0.06
35033 H 111.16990349323427 58.12242177378832 12.525766289223881 H 0.0 **** 0.06
35034 H 112.41884569075086 58.34331463715134 13.77553136253496 H 0.0 **** 0.06
35035 H 110.79485221690496 59.037120630427154 14.006606095515952 H 0.0 **** 0.06
35036 C 95.6062168185201 57.12986403757273 111.51089600415031 C 0.0 **** -0.24
35037 H 95.51342108445112 56.863463369234836 112.56374610799844 H 0.0 **** 0.06
35038 H 95.89858156788898 58.17605757121245 111.42481689339351 H 0.0 **** 0.06
35039 H 94.64922458286324 56.97618285873119 111.01156775580071 H 0.0 **** 0.06
35040 H 96.36408039424461 56.500958440927576 111.0434291343369 H 0.0 **** 0.06
35041 C 95.48199991848556 38.27275242042927 67.43285338458169 C 0.0 **** -0.24
35042 H 95.46213262555085 38.76762893919866 68.40331676615594 H 0.0 **** 0.06
35043 H 94.72955176522419 38.71848789067508 66.78213809793775 H 0.0 **** 0.06
35044 H 95.26748255269096 37.2118678106784 67.56217800662367 H 0.0 **** 0.06
35045 H 96.46852873815509 38.392222449393046 66.98429397915213 H 0.0 **** 0.06
35046 C 66.61874114583819 122.08827362566508 14.157142058543542 C 0.0 **** -0.24
35047 H 66.6540704405528 121.2811581670558 14.889489813029684 H 0.0 **** 0.06
35048 H 67.63299264010412 122.41495877482704 13.927962175629233 H 0.0 **** 0.06
35049 H 66.04988555969277 122.92370670160594 14.566581508144452 H 0.0 **** 0.06
35050 H 66.13644987225503 121.73212949324461 13.246824975097951 H 0.0 **** 0.06
35051 C 91.70375949219337 50.624564492021506 42.68827083761178 C 0.0 **** -0.24
35052 H 92.18857398899767 50.0716897022773 43.493514361563975 H 0.0 **** 0.06
35053 H 92.08371926426902 50.27556684890078 41.72819328144203 H 0.0 **** 0.06
35054 H 91.91644865332509 51.6879259355467 42.798803516102616 H 0.0 **** 0.06
35055 H 90.62691447089172 50.462646750727345 42.7337696335951 H 0.0 **** 0.06
35056 C 111.10402066506182 115.44639306841702 122.41320703568086 C 0.0 **** -0.24
35057 H 110.21209059761333 114.98937041534657 122.84117400589356 H 0.0 **** 0.06
35058 H 111.7019978193633 115.89136213942464 123.20860603171094 H 0.0 **** 0.06
35059 H 110.81135067193651 116.2184613314634 121.70167377910133 H 0.0 **** 0.06
35060 H 111.69122850990843 114.68378225331838 121.89998925665658 H 0.0 **** 0.06
35061 C 1.139571716930817 18.705790695379847 74.10205704331467 C 0.0 **** -0.24
35062 H 1.9415618481230013 19.104306677064187 74.72435810473269 H 0.0 **** 0.06
35063 H 1.1237293571530529 17.618906508035423 74.1813191181264 H 0.0 **** 0.06
35064 H 1.3096283892403449 18.992495409036337 73.06434328930342 H 0.0 **** 0.06
35065 H 0.18449507714707636 19.108746319340128 74.4384497646914 H 0.0 **** 0.06
35066 C 21.118155890297714 59.847082597703945 11.20155652170255 C 0.0 **** -0.24
35067 H 21.653677633323213 59.32357720652004 11.993849586338769 H 0.0 **** 0.06
35068 H 20.046194630029902 59.68859971422086 11.322117601920201 H 0.0 **** 0.06
35069 H 21.43530122053255 59.46025291704666 10.233013618680296 H 0.0 **** 0.06
35070 H 21.337695017879582 60.91245650688063 11.25620641156599 H 0.0 **** 0.06
35071 C 18.968572548658898 122.19889697793963 2.013213665826198 C 0.0 **** -0.24
35072 H 18.431076733523213 123.13648126477281 1.8684804479251955 H 0.0 **** 0.06
35073 H 18.906802737093756 121.60149006775544 1.1035460415552087 H 0.0 **** 0.06
35074 H 18.520357100143485 121.64866128012935 2.840617015886531 H 0.0 **** 0.06
35075 H 20.013271437335845 122.41003499754532 2.2399042834676006 H 0.0 **** 0.06
35076 C 94.39746843996721 24.243203091729924 56.9358696068245 C 0.0 **** -0.24
35077 H 95.19746660078204 24.807351415805215 56.45629028442468 H 0.0 **** 0.06
35078 H 94.56672012385242 23.1760615309056 56.78683086455055 H 0.0 **** 0.06
35079 H 93.44063386843426 24.525090545488155 56.496779915999554 H 0.0 **** 0.06
35080 H 94.38748163972399 24.46399564273449 58.00364611349954 H 0.0 **** 0.06
35081 C 113.31285117614773 91.43904784851648 3.3360285289670912 C 0.0 **** -0.24
35082 H 112.92553190332914 91.43351476448728 2.317410913005631 H 0.0 **** 0.06
35083 H 112.9219030737551 90.57754926068316 3.877945038374918 H 0.0 **** 0.06
35084 H 113.00180798326544 92.35569723067465 3.837995455820675 H 0.0 **** 0.06
35085 H 114.401368921266 91.38929690595805 3.311357464514657 H 0.0 **** 0.06
35086 C 78.50671727047477 114.21991913594817 64.99954790758122 C 0.0 **** -0.24
35087 H 77.50551310792002 114.03284666703385 65.38945545394347 H 0.0 **** 0.06
35088 H 78.47131687497478 115.0471595111203 64.29054304891594 H 0.0 **** 0.06
35089 H 78.87312055699654 113.32504851395085 64.4966533855588 H 0.0 **** 0.06
35090 H 79.17476484856154 114.47475856394662 65.8221255596404 H 0.0 **** 0.06
35091 C 75.92827659897293 41.629124942935846 42.14791448625554 C 0.0 **** -0.24
35092 H 76.42678584156496 41.90511053268397 43.07639018527426 H 0.0 **** 0.06
35093 H 75.53159360696537 42.523943382489826 41.6682184631905 H 0.0 **** 0.06
35094 H 75.11125558970835 40.94099798326172 42.36648187402585 H 0.0 **** 0.06
35095 H 76.64252889039639 41.14557467340074 41.48115851020708 H 0.0 **** 0.06
35096 C 122.99615895997866 49.0969304584799 71.85766552167584 C 0.0 **** -0.24
35097 H 123.67271008893553 49.888780975829576 71.53350641311816 H 0.0 **** 0.06
35098 H 122.00842991128198 49.26620560908472 71.42820540852442 H 0.0 **** 0.06
35099 H 122.92552796702964 49.103667926932104 72.94547322077291 H 0.0 **** 0.06
35100 H 123.37939423036542 48.13292355953874 71.52378663745561 H 0.0 **** 0.06
35101 C 41.95756738913602 23.262785259005113 98.7727757697622 C 0.0 **** -0.24
35102 H 41.47506566615451 23.32033802721304 99.74787443697512 H 0.0 **** 0.06
35103 H 41.881055254292846 24.227769369349232 98.27156496026373 H 0.0 **** 0.06
35104 H 41.46687770009922 22.498938016733916 98.16857398992187 H 0.0 **** 0.06
35105 H 43.00829684170233 23.00271130767834 98.90326675179222 H 0.0 **** 0.06
35106 C 41.09250975785349 75.72283548960314 5.734522283925173 C 0.0 **** -0.24
35107 H 40.30139012493211 75.03158387764759 5.442627293730425 H 0.0 **** 0.06
35108 H 41.350192869690744 76.3571567546272 4.886554337481925 H 0.0 **** 0.06
35109 H 41.97173769618385 75.15759565369467 6.045424078966278 H 0.0 **** 0.06
35110 H 40.74740220392346 76.34215890513674 6.561378919885101 H 0.0 **** 0.06
35111 C 75.0269308221149 40.33877662295464 85.25821513827388 C 0.0 **** -0.24
35112 H 74.56437663329726 41.2118677076661 84.79839205848195 H 0.0 **** 0.06
35113 H 74.31092368980924 39.517554229480595 85.28119876516877 H 0.0 **** 0.06
35114 H 75.33177026215822 40.584088910173534 86.27637062380522 H 0.0 **** 0.06
35115 H 75.90113050481895 40.043585857443304 84.67909255968648 H 0.0 **** 0.06
35116 C 61.859808084780965 1.5804950465820777 12.774084252986786 C 0.0 **** -0.24
35117 H 61.52097129029528 2.4850384702583863 12.269342228954624 H 0.0 **** 0.06
35118 H 61.71093950134377 0.7220074850898648 12.117923415324576 H 0.0 **** 0.06
35119 H 61.288609225133285 1.440489550035366 13.691397170950587 H 0.0 **** 0.06
35120 H 62.91822739405596 1.674487981112346 13.015491712407375 H 0.0 **** 0.06
35121 C 96.40580555036196 108.7707057272151 62.365892246818845 C 0.0 **** -0.24
35122 H 95.95820139842897 109.72804934223939 62.63338701216486 H 0.0 **** 0.06
35123 H 96.53113867105971 108.71850647788102 61.283826343792214 H 0.0 **** 0.06
35124 H 95.75551774820526 107.96090503718904 62.695718395215664 H 0.0 **** 0.06
35125 H 97.37781110041148 108.67633912888493 62.84977740782064 H 0.0 **** 0.06
35126 C 112.14472712992159 105.2705718484847 88.2194803292986 C 0.0 **** -0.24
35127 H 112.43598717396955 105.75966462973156 89.14858662094727 H 0.0 **** 0.06
35128 H 112.12748211004288 106.00285457488727 87.41278504510143 H 0.0 **** 0.06
35129 H 111.15277005792069 104.833308623542 88.33513399626959 H 0.0 **** 0.06
35130 H 112.86256073534923 104.48513979986578 87.98321752232407 H 0.0 **** 0.06
35131 C 17.773390638258363 114.80520057210549 97.6161168955816 C 0.0 **** -0.24
35132 H 18.564298430329586 115.36714561720211 97.1213520717103 H 0.0 **** 0.06
35133 H 18.20755019759001 114.16651531558512 98.3862755839354 H 0.0 **** 0.06
35134 H 17.251956172989395 114.18963703821404 96.88382509203772 H 0.0 **** 0.06
35135 H 17.068187850863836 115.49935306757959 98.07527716148574 H 0.0 **** 0.06
35136 C 55.818395191307104 75.93674943854188 79.45478580057534 C 0.0 **** -0.24
35137 H 56.466021211622945 76.7117362325692 79.86581957123902 H 0.0 **** 0.06
35138 H 54.98641795364384 76.40195407531343 78.9251101587058 H 0.0 **** 0.06
35139 H 55.43368567306999 75.31754460411025 80.26425265531378 H 0.0 **** 0.06
35140 H 56.39004439860591 75.31709462923601 78.76237124248703 H 0.0 **** 0.06
35141 C 113.15686086857147 64.6207271382763 112.70101415062774 C 0.0 **** -0.24
35142 H 112.90505847093567 64.06601335058058 113.60415854801299 H 0.0 **** 0.06
35143 H 113.76595191901242 65.48569297041058 112.96436169745128 H 0.0 **** 0.06
35144 H 112.24155639958644 64.95556838960896 112.21194275954457 H 0.0 **** 0.06
35145 H 113.71622668243668 63.976438113480285 112.02286502676442 H 0.0 **** 0.06
35146 C 71.45484188346809 55.14083237444328 73.53205591008174 C 0.0 **** -0.24
35147 H 71.35800064770925 55.10812936864204 72.44722829592581 H 0.0 **** 0.06
35148 H 72.15363448015003 54.36904186707159 73.8573436546636 H 0.0 **** 0.06
35149 H 70.48117180172429 54.96572679653531 73.98974720293182 H 0.0 **** 0.06
35150 H 71.82808853755117 56.11961637456568 73.83393923657104 H 0.0 **** 0.06
35151 C 103.291099592203 36.558192002999576 49.92743765664582 C 0.0 **** -0.24
35152 H 103.09419432133826 37.572713162603236 49.58132376942545 H 0.0 **** 0.06
35153 H 102.414489194795 36.177837114778924 50.45320771554668 H 0.0 **** 0.06
35154 H 104.14592911623 36.56487213436586 50.603752355514686 H 0.0 **** 0.06
35155 H 103.50801012075668 35.91865113371796 49.07253594137995 H 0.0 **** 0.06
35156 C 117.60892311129342 30.903576146313704 1.833807950307838 C 0.0 **** -0.24
35157 H 116.98983921857351 31.76327429774387 2.088128361355775 H 0.0 **** 0.06
35158 H 117.05591404406715 30.24575106640249 1.1623945830740023 H 0.0 **** 0.06
35159 H 117.86853371134785 30.36039677396178 2.742448259256955 H 0.0 **** 0.06
35160 H 118.51904646497718 31.243994136168055 1.3406337982542862 H 0.0 **** 0.06
35161 C 8.004291398410746 55.607146882040695 80.31551637474826 C 0.0 **** -0.24
35162 H 7.494388477250194 55.34492824577302 79.38882598776081 H 0.0 **** 0.06
35163 H 8.612747843948174 56.498297638014975 80.15587964673136 H 0.0 **** 0.06
35164 H 8.6440715126781 54.779806894915126 80.62443014756172 H 0.0 **** 0.06
35165 H 7.265957759766671 55.805554749459844 81.09292971693918 H 0.0 **** 0.06
35166 C 111.4549448445069 109.08909428003687 87.83194870165585 C 0.0 **** -0.24
35167 H 112.02505991853363 109.59601887235806 87.05341099009144 H 0.0 **** 0.06
35168 H 112.03444756486385 108.25103688560228 88.21881184672512 H 0.0 **** 0.06
35169 H 110.5176164202296 108.72155589434436 87.41527902050106 H 0.0 **** 0.06
35170 H 111.24335844026308 109.78844411336746 88.64050586448022 H 0.0 **** 0.06
35171 C 4.490980394273105 77.72187047256381 11.803752952966676 C 0.0 **** -0.24
35172 H 4.888584841363372 78.39334388798238 11.042812181660366 H 0.0 **** 0.06
35173 H 3.4021120141271926 77.7851231244843 11.809369330013084 H 0.0 **** 0.06
35174 H 4.876123682353263 78.01154090151078 12.780488484383113 H 0.0 **** 0.06
35175 H 4.794730127923906 76.69933762015 11.581389898143328 H 0.0 **** 0.06
35176 C 98.99277710689083 100.6276188975566 34.77760005445461 C 0.0 **** -0.24
35177 H 99.28458678445892 101.45106040466572 34.1255886162167 H 0.0 **** 0.06
35178 H 98.73816451869524 101.01645692247922 35.764159831055956 H 0.0 **** 0.06
35179 H 99.82051255800613 99.9235915501178 34.86627504635479 H 0.0 **** 0.06
35180 H 98.12759202974141 100.11778012809015 34.352821332988505 H 0.0 **** 0.06
35181 C 123.08204984994758 120.27318447183293 45.4350396872872 C 0.0 **** -0.24
35182 H 123.02889433182092 121.20722765630181 45.99492410509395 H 0.0 **** 0.06
35183 H 122.1613473871349 120.1379526875727 44.8673416556699 H 0.0 **** 0.06
35184 H 123.20804111739969 119.44156893340143 46.128050137002056 H 0.0 **** 0.06
35185 H 123.93063528479473 120.30796627059162 44.751096892911676 H 0.0 **** 0.06
35186 C 89.10568336802646 56.08624207519799 103.20589985860113 C 0.0 **** -0.24
35187 H 89.5693907715276 56.95820015201535 102.74231990002593 H 0.0 **** 0.06
35188 H 89.7227552653181 55.20629963976069 103.02363822983887 H 0.0 **** 0.06
35189 H 88.11485023467158 55.93175755419354 102.778533563711 H 0.0 **** 0.06
35190 H 89.01570196612029 56.25227173562824 104.27967368755287 H 0.0 **** 0.06
35191 C 7.494882620654636 108.30319541766613 66.99689708989013 C 0.0 **** -0.24
35192 H 6.831613540002735 108.92882966463846 66.40029875072639 H 0.0 **** 0.06
35193 H 8.220145018785587 108.93194483196798 67.51397577546254 H 0.0 **** 0.06
35194 H 8.018582295429695 107.6042910372712 66.34445625644923 H 0.0 **** 0.06
35195 H 6.909189628400526 107.74771613678683 67.72885757692217 H 0.0 **** 0.06
35196 C 47.01100017158413 39.65037756382688 22.48323673458333 C 0.0 **** -0.24
35197 H 46.521769351347345 40.58508474037794 22.21153038855971 H 0.0 **** 0.06
35198 H 46.77763543458087 39.406471043429974 23.520386819090845 H 0.0 **** 0.06
35199 H 48.09027877434981 39.75905465792607 22.369721225012825 H 0.0 **** 0.06
35200 H 46.65642927867995 38.8516036501143 21.832330145122228 H 0.0 **** 0.06
35201 C 22.32769101674316 80.25932497197493 65.64548968447747 C 0.0 **** -0.24
35202 H 23.18227660224639 80.21281830827957 64.97090812219477 H 0.0 **** 0.06
35203 H 22.56523536770058 80.90743154229068 66.4884269321251 H 0.0 **** 0.06
35204 H 22.09799143467808 79.25753979647095 66.00984435255009 H 0.0 **** 0.06
35205 H 21.465390584065716 80.65872969043221 65.11160716696145 H 0.0 **** 0.06
35206 C 91.44417524788463 81.6342217324838 119.95045954707437 C 0.0 **** -0.24
35207 H 91.01758015607862 81.75630645864744 120.94590599878516 H 0.0 **** 0.06
35208 H 92.30550681964738 82.29380926558191 119.84152858328189 H 0.0 **** 0.06
35209 H 90.69407254442439 81.88818077115364 119.20110750774116 H 0.0 **** 0.06
35210 H 91.75758474293502 80.5996279406422 119.81434257668552 H 0.0 **** 0.06
35211 C 121.46190871804924 25.133102042683646 60.91810498509197 C 0.0 **** -0.24
35212 H 120.5526899019784 25.72393810523087 60.808493938617346 H 0.0 **** 0.06
35213 H 121.65829617743893 24.9622600708027 61.97633259132763 H 0.0 **** 0.06
35214 H 122.30025667974922 25.671100944023436 60.474971130551836 H 0.0 **** 0.06
35215 H 121.33554743852406 24.17553530797153 60.411571120061765 H 0.0 **** 0.06
35216 C 26.788451163873503 56.1878422561274 109.22915718955122 C 0.0 **** -0.24
35217 H 27.124602594564635 56.81385299491056 108.40203535649542 H 0.0 **** 0.06
35218 H 25.793853299556588 55.79940841120748 109.01064648022452 H 0.0 **** 0.06
35219 H 26.754840146013066 56.78109891642727 110.14233323009685 H 0.0 **** 0.06
35220 H 27.48293215974479 55.35732475259823 109.36018997315759 H 0.0 **** 0.06
35221 C 113.943287468358 64.73497132812736 43.31765148985136 C 0.0 **** -0.24
35222 H 114.5677035124408 65.62058627492002 43.43263166596981 H 0.0 **** 0.06
35223 H 113.15796263257533 64.74427939654689 44.074311278947725 H 0.0 **** 0.06
35224 H 114.55398082944652 63.84071954791061 43.43773072628495 H 0.0 **** 0.06
35225 H 113.49240527975246 64.7360258497234 42.32502826145484 H 0.0 **** 0.06
35226 C 94.53496526117586 109.87074816875227 5.628646158454984 C 0.0 **** -0.24
35227 H 95.09131215242775 110.649209468233 5.1054999952918365 H 0.0 **** 0.06
35228 H 95.19123801979131 109.02129622695061 5.8185281836134095 H 0.0 **** 0.06
35229 H 93.69381129758939 109.55109881387331 5.01473010032106 H 0.0 **** 0.06
35230 H 94.16501976290147 110.26395497858489 6.575508574879592 H 0.0 **** 0.06
35231 C 87.92610191432749 45.3562624038432 54.242605174597486 C 0.0 **** -0.24
35232 H 87.98386124873372 45.90659469397835 53.30345026578044 H 0.0 **** 0.06
35233 H 88.54726305761218 44.46226540806214 54.178496122606646 H 0.0 **** 0.06
35234 H 86.89144256387306 45.068331094232775 54.43132811131068 H 0.0 **** 0.06
35235 H 88.28190010140725 45.98836191554287 55.05628420868817 H 0.0 **** 0.06
35236 C 77.01609206015289 38.626863999854464 31.729800986088705 C 0.0 **** -0.24
35237 H 77.97735122946622 38.13824547138651 31.565066209073564 H 0.0 **** 0.06
35238 H 76.93462519915525 38.92475089060711 32.775915389559216 H 0.0 **** 0.06
35239 H 76.21085111619587 37.93620563516559 31.484288005518366 H 0.0 **** 0.06
35240 H 76.94484323969843 39.51001296629598 31.093934425501274 H 0.0 **** 0.06
35241 C 47.32748624735035 118.37534973125491 30.45930916269983 C 0.0 **** -0.24
35242 H 48.38237148725375 118.61999032338267 30.58654853142351 H 0.0 **** 0.06
35243 H 47.23497203196251 117.38712543251239 30.00886986697271 H 0.0 **** 0.06
35244 H 46.85921380967329 119.11649282269468 29.81140287108314 H 0.0 **** 0.06
35245 H 46.83453854940734 118.37986364912157 31.432253139006136 H 0.0 **** 0.06
35246 C 5.206879733488229 30.68001559421384 34.09940267734999 C 0.0 **** -0.24
35247 H 6.1543362646076964 30.503198397963274 34.60825972559524 H 0.0 **** 0.06
35248 H 5.392750310004519 31.181813546845035 33.149847178527104 H 0.0 **** 0.06
35249 H 4.57092639147249 31.30663148919018 34.72423908950489 H 0.0 **** 0.06
35250 H 4.709631953414668 29.726841013113244 33.916844124993304 H 0.0 **** 0.06
35251 C 122.84484987624361 35.815763846840355 102.72691877885488 C 0.0 **** -0.24
35252 H 121.93305322984028 36.23015635429732 103.1577626781854 H 0.0 **** 0.06
35253 H 123.6359371003602 35.820213898588804 103.4766273203432 H 0.0 **** 0.06
35254 H 123.1501080766223 36.421303757578244 101.87254436058386 H 0.0 **** 0.06
35255 H 122.6597863000764 34.79239061964881 102.3988128869836 H 0.0 **** 0.06
35256 C 92.97578691293222 20.858494928896192 53.02352101754437 C 0.0 **** -0.24
35257 H 91.90879662871367 21.076825152514886 53.06706812036509 H 0.0 **** 0.06
35258 H 93.12224767670398 19.829627659692477 52.69385129466468 H 0.0 **** 0.06
35259 H 93.41414257691986 20.988849258079796 54.01345375367342 H 0.0 **** 0.06
35260 H 93.45808632839709 21.537930815623298 52.320905299909356 H 0.0 **** 0.06
35261 C 86.65474432490844 83.75259045399883 44.676550476950865 C 0.0 **** -0.24
35262 H 86.78049867922738 84.19598338686797 45.66400995639944 H 0.0 **** 0.06
35263 H 85.77688100629169 83.1048669561863 44.67830642747887 H 0.0 **** 0.06
35264 H 87.53893370449471 83.16496517191533 44.42681972447832 H 0.0 **** 0.06
35265 H 86.52298710651596 84.54236263760015 43.93670883176145 H 0.0 **** 0.06
35266 C 108.36034866056393 124.31551430237582 66.10260396123303 C 0.0 **** -0.24
35267 H 108.95431134637579 125.22939786167757 66.13251910975617 H 0.0 **** 0.06
35268 H 108.02390217407535 124.06813477177722 67.11037176077075 H 0.0 **** 0.06
35269 H 108.96921650365569 123.49976752691606 65.71238623642785 H 0.0 **** 0.06
35270 H 107.49544756832105 124.46499414903717 65.45679551513237 H 0.0 **** 0.06
35271 C 62.028199929381344 38.5754009322269 120.15730360831841 C 0.0 **** -0.24
35272 H 62.01100341830046 38.488513270958464 121.24380465920527 H 0.0 **** 0.06
35273 H 61.20663328245848 39.2134670700556 119.83043115505173 H 0.0 **** 0.06
35274 H 61.91813844533657 37.58593821641546 119.71213422885667 H 0.0 **** 0.06
35275 H 62.97545939847737 39.01194868294772 119.84211284183218 H 0.0 **** 0.06
35276 C 63.00161202901555 122.59339601912995 9.685458765338524 C 0.0 **** -0.24
35277 H 62.094531286244774 122.0087562571926 9.839411980809189 H 0.0 **** 0.06
35278 H 63.22422576953656 122.64448582026358 8.619242225827236 H 0.0 **** 0.06
35279 H 63.83296122656017 122.11947314889721 10.208646499517727 H 0.0 **** 0.06
35280 H 62.85557502824369 123.60070965301651 10.07504460622522 H 0.0 **** 0.06
35281 C 109.3304856121195 111.18744108570544 50.626138143402045 C 0.0 **** -0.24
35282 H 110.08055979067069 110.40847810360637 50.760175699638296 H 0.0 **** 0.06
35283 H 109.07874547016792 111.27206893870289 49.56835612138843 H 0.0 **** 0.06
35284 H 109.72755993007738 112.13814846702941 50.98229566758175 H 0.0 **** 0.06
35285 H 108.43569856350905 110.93178825411383 51.193414494432716 H 0.0 **** 0.06
35286 C 83.19447374266115 63.18910155801642 32.6522827392435 C 0.0 **** -0.24
35287 H 83.94098864974927 62.49477415892616 33.03915961135624 H 0.0 **** 0.06
35288 H 82.20582887367932 62.893055520949986 33.00400963618833 H 0.0 **** 0.06
35289 H 83.21356826623972 63.17312383647612 31.562193356575193 H 0.0 **** 0.06
35290 H 83.41863804919024 64.19656335447468 33.00446999305319 H 0.0 **** 0.06
35291 C 121.91668406295378 75.98549474278514 28.19312194425038 C 0.0 **** -0.24
35292 H 122.77333369241964 75.6842937729863 27.59017659366043 H 0.0 **** 0.06
35293 H 121.63096966792368 77.00510784378916 27.933631787715854 H 0.0 **** 0.06
35294 H 122.18156135114735 75.93901320373661 29.24898800866879 H 0.0 **** 0.06
35295 H 121.08108575440194 75.31249618289179 27.998789353426105 H 0.0 **** 0.06
35296 C 93.2378694992695 27.477036955225394 17.682748914821758 C 0.0 **** -0.24
35297 H 93.70762270115432 27.989729156944577 18.522847960315573 H 0.0 **** 0.06
35298 H 92.89516981806486 26.492942385314535 18.00398802427864 H 0.0 **** 0.06
35299 H 93.96209436222244 27.36485404768895 16.87579782679009 H 0.0 **** 0.06
35300 H 92.38801868553753 28.06148686739003 17.32985004013807 H 0.0 **** 0.06
35301 C 70.91034410001765 77.90542447046846 113.8964187985452 C 0.0 **** -0.24
35302 H 71.35675699919878 78.40663516740491 113.03724413723694 H 0.0 **** 0.06
35303 H 70.15366262916311 78.55288683167946 114.34106632605574 H 0.0 **** 0.06
35304 H 71.68409504176512 77.69113878541535 114.63349397851681 H 0.0 **** 0.06
35305 H 70.44837516825024 76.97268131165406 113.57379117842936 H 0.0 **** 0.06
35306 C 65.52573837687106 60.55131900172992 115.2141162875619 C 0.0 **** -0.24
35307 H 64.87382494866822 60.23342143510638 116.02685218883039 H 0.0 **** 0.06
35308 H 65.78586936991667 59.68985363199337 114.59778677066498 H 0.0 **** 0.06
35309 H 66.43344101090665 60.99023108089713 115.62690892440955 H 0.0 **** 0.06
35310 H 65.00920422465322 61.292375588826275 114.60285415686917 H 0.0 **** 0.06
35311 C 40.71305492570059 72.47345081284719 3.731653102052892 C 0.0 **** -0.24
35312 H 41.705898167393286 72.75059336704427 4.085330898937741 H 0.0 **** 0.06
35313 H 40.06749127785588 73.35167952268912 3.7390433886136094 H 0.0 **** 0.06
35314 H 40.29576672784674 71.70849536738379 4.386082933752913 H 0.0 **** 0.06
35315 H 40.78549600732657 72.083323209849 2.716172684035193 H 0.0 **** 0.06
35316 C 117.42789765115162 118.52670728321061 120.11420368039592 C 0.0 **** -0.24
35317 H 117.68286540316285 119.22029699547312 120.9152464035766 H 0.0 **** 0.06
35318 H 116.65630839191601 117.83928180182971 120.46166009193611 H 0.0 **** 0.06
35319 H 118.31580795848109 117.96184209875275 119.82736504271651 H 0.0 **** 0.06
35320 H 117.05902433878958 119.08422598621019 119.2538729145868 H 0.0 **** 0.06
35321 C 0.09680810253047412 83.1577981121243 105.69337437744397 C 0.0 **** -0.24
35322 H 0.7374996788548458 83.83862883078594 105.13288838587533 H 0.0 **** 0.06
35323 H 0.7075314621582152 82.38300545276886 106.15611186576135 H 0.0 **** 0.06
35324 H -0.622919316184408 82.6972234419978 105.0163949530648 H 0.0 **** 0.06
35325 H -0.4344774153719868 83.71340662094543 106.46593672133 H 0.0 **** 0.06
35326 C 73.8418064997449 63.25684539872614 21.493619227913626 C 0.0 **** -0.24
35327 H 74.89365340906608 63.255910662991084 21.7780236371253 H 0.0 **** 0.06
35328 H 73.61478072486005 62.346514889644226 20.938364878247512 H 0.0 **** 0.06
35329 H 73.63489656500306 64.12502502013405 20.86806577840207 H 0.0 **** 0.06
35330 H 73.2231127295297 63.299798037086134 22.390630854659577 H 0.0 **** 0.06
35331 C 29.747238900882166 83.16916210995299 69.19381700635853 C 0.0 **** -0.24
35332 H 30.734693311800157 83.07161983126049 68.74393153539978 H 0.0 **** 0.06
35333 H 29.45894583175152 84.22112538665387 69.21367114331122 H 0.0 **** 0.06
35334 H 29.77197959008629 82.77943373666045 70.21215510151075 H 0.0 **** 0.06
35335 H 29.022575837052443 82.6042331672859 68.60667861591219 H 0.0 **** 0.06
35336 C 63.838628569643106 76.53752500919582 96.68099693233954 C 0.0 **** -0.24
35337 H 64.81083465522107 76.89755140868282 96.34347351192885 H 0.0 **** 0.06
35338 H 63.08251275974891 77.29975502810679 96.49141840903867 H 0.0 **** 0.06
35339 H 63.881027223507374 76.32569328571894 97.74954332881019 H 0.0 **** 0.06
35340 H 63.58121156075475 75.62655844318353 96.1402991180921 H 0.0 **** 0.06
35341 C 86.01173428258357 7.808421341141496 120.01086593732595 C 0.0 **** -0.24
35342 H 85.31556328783662 7.400750590395404 120.74418253945038 H 0.0 **** 0.06
35343 H 87.03196619969509 7.699322767467692 120.37952848625014 H 0.0 **** 0.06
35344 H 85.79355014717049 8.863884773743308 119.84983705085745 H 0.0 **** 0.06
35345 H 85.90575357395127 7.266902160498773 119.06982296424633 H 0.0 **** 0.06
35346 C 96.43614065783069 28.221785177849796 32.613453787004175 C 0.0 **** -0.24
35347 H 95.68758516644567 27.431621358228114 32.66649612530557 H 0.0 **** 0.06
35348 H 96.00507022710767 29.154963832695955 32.977251308575035 H 0.0 **** 0.06
35349 H 96.75873870196168 28.348717299233 31.579457891796267 H 0.0 **** 0.06
35350 H 97.29250130679887 27.951647906717284 33.231329988609104 H 0.0 **** 0.06
35351 C 90.77819145250795 48.194721005957845 122.59223426641032 C 0.0 **** -0.24
35352 H 90.24591721060779 47.92618756084099 123.50481228164297 H 0.0 **** 0.06
35353 H 90.51850450186936 49.21440459852077 122.30729781610232 H 0.0 **** 0.06
35354 H 90.49506745559985 47.50975926928172 121.79284078217768 H 0.0 **** 0.06
35355 H 91.85202375880922 48.127180450328446 122.76525198831756 H 0.0 **** 0.06
35356 C 87.17861717302466 105.65484788910577 65.37026041589513 C 0.0 **** -0.24
35357 H 87.22326568823388 105.73578596387745 66.456737425357 H 0.0 **** 0.06
35358 H 86.14052722632793 105.53593084267897 65.05843874556894 H 0.0 **** 0.06
35359 H 87.75779208877427 104.79011453027516 65.04617192555298 H 0.0 **** 0.06
35360 H 87.59098106620985 106.55819292975032 64.92110070143042 H 0.0 **** 0.06
35361 C 57.157045488314424 84.30362867592481 20.338523756218137 C 0.0 **** -0.24
35362 H 56.9451432856857 85.08731478374241 21.06556036029602 H 0.0 **** 0.06
35363 H 57.4981057765191 84.75521241885343 19.406432150996096 H 0.0 **** 0.06
35364 H 56.25153317459832 83.7255288788494 20.152188513444173 H 0.0 **** 0.06
35365 H 57.93392006389446 83.64598507947937 20.72920333185479 H 0.0 **** 0.06
35366 C 11.921767260867739 107.39466317680002 112.71296305838953 C 0.0 **** -0.24
35367 H 11.928074000984282 108.28944960646662 113.33524126562847 H 0.0 **** 0.06
35368 H 11.803945488872671 106.51374031842421 113.34501584428423 H 0.0 **** 0.06
35369 H 12.861116566882686 107.32628411730238 112.16538673703675 H 0.0 **** 0.06
35370 H 11.092636748772009 107.44909006448356 112.0080283276018 H 0.0 **** 0.06
35371 C 37.40136533383409 93.00899854306635 115.15055714955764 C 0.0 **** -0.24
35372 H 36.363696802743775 92.67769803437949 115.10930541292328 H 0.0 **** 0.06
35373 H 37.50428157488075 93.78660956633746 115.90786691952098 H 0.0 **** 0.06
35374 H 37.69437607638119 93.40712697885766 114.17930221972262 H 0.0 **** 0.06
35375 H 38.04147880841065 92.16502543683538 115.40539000118878 H 0.0 **** 0.06
35376 C 19.152902157777564 101.80285296047282 3.704942538353336 C 0.0 **** -0.24
35377 H 19.66841319808506 101.21107675171879 4.460880336774011 H 0.0 **** 0.06
35378 H 18.999470254370042 101.19756985331463 2.8107094610615633 H 0.0 **** 0.06
35379 H 19.75574103537474 102.67593362476032 3.453838610793923 H 0.0 **** 0.06
35380 H 18.18767313991431 102.12827492957848 4.09343605586038 H 0.0 **** 0.06
35381 C 51.92025758455753 59.19290381460898 107.48623076603481 C 0.0 **** -0.24
35382 H 51.74328583631902 59.93993472226771 108.2607910255119 H 0.0 **** 0.06
35383 H 52.94020464143492 59.29154471808026 107.11419622724524 H 0.0 **** 0.06
35384 H 51.21796387825762 59.34679795899899 106.66706787618297 H 0.0 **** 0.06
35385 H 51.77940591597985 58.19615299728666 107.90308358165125 H 0.0 **** 0.06
35386 C 105.35641406304583 15.480432369236894 119.24103561503992 C 0.0 **** -0.24
35387 H 104.8722342465609 14.64810176919815 119.75268435405644 H 0.0 **** 0.06
35388 H 105.60001409577933 16.258231887292936 119.96564289400578 H 0.0 **** 0.06
35389 H 104.68144248242625 15.885679858771596 118.48711217691162 H 0.0 **** 0.06
35390 H 106.26996158884434 15.130302462682323 118.7616426516001 H 0.0 **** 0.06
35391 C 32.666300948083034 59.06321342204622 62.797730404060374 C 0.0 **** -0.24
35392 H 33.6707776543099 59.09563861739767 62.37524267305723 H 0.0 **** 0.06
35393 H 32.01408845761111 58.48949083926182 62.13843757723606 H 0.0 **** 0.06
35394 H 32.28125611931222 60.07756291325353 62.89709458017353 H 0.0 **** 0.06
35395 H 32.700399781489494 58.588973639954574 63.778457988285695 H 0.0 **** 0.06
35396 C 63.90021169272279 17.618697660116297 79.65893462433576 C 0.0 **** -0.24
35397 H 64.33782853815956 18.548542876831647 79.29597723904547 H 0.0 **** 0.06
35398 H 64.494266665015 16.776090064157273 79.30582159986021 H 0.0 **** 0.06
35399 H 62.880415324867386 17.527277284284366 79.28538760170926 H 0.0 **** 0.06
35400 H 63.88838385853364 17.624275005967547 80.7487821796556 H 0.0 **** 0.06
35401 C 56.66007671054396 66.26807038554819 14.141911522783005 C 0.0 **** -0.24
35402 H 55.64960561377076 66.54582897934554 14.443734479780943 H 0.0 **** 0.06
35403 H 56.664674932618865 66.00673738969081 13.084439279089395 H 0.0 **** 0.06
35404 H 56.991321578788586 65.41123641219772 14.730134424830766 H 0.0 **** 0.06
35405 H 57.333254047052435 67.10819888486233 14.311749888996104 H 0.0 **** 0.06
35406 C 69.66577219860974 102.78042589936433 113.8032893681371 C 0.0 **** -0.24
35407 H 68.60661354799615 102.88074587824366 113.5664760361916 H 0.0 **** 0.06
35408 H 70.23716221745914 103.51326674132511 113.23302233566288 H 0.0 **** 0.06
35409 H 70.00289964938932 101.7756948221523 113.54513758811333 H 0.0 **** 0.06
35410 H 69.8169230146207 102.95122372494856 114.86890055933502 H 0.0 **** 0.06
35411 C 94.47300174666942 52.93056481842018 107.98899760210583 C 0.0 **** -0.24
35412 H 94.98869474896622 52.82411320130862 107.03546868218422 H 0.0 **** 0.06
35413 H 93.94146411299839 53.88198531473145 108.00986609051847 H 0.0 **** 0.06
35414 H 95.20025369427732 52.903219671845676 108.80076208867683 H 0.0 **** 0.06
35415 H 93.76172640112745 52.11365349041654 108.11058283436853 H 0.0 **** 0.06
35416 C 102.2925563072794 15.704331948416666 95.05752243737747 C 0.0 **** -0.24
35417 H 102.51487886352834 15.099193061618507 95.93591430149628 H 0.0 **** 0.06
35418 H 101.70546074742126 16.57433185529797 95.35431151477414 H 0.0 **** 0.06
35419 H 101.72559236861943 15.110678866329323 94.3410131407485 H 0.0 **** 0.06
35420 H 103.22447963393222 16.034682491949894 94.59811829194085 H 0.0 **** 0.06
35421 C 0.8151435032413019 23.769012999851412 86.843522245239 C 0.0 **** -0.24
35422 H 0.012958876401796715 23.559538318929583 86.13572643915708 H 0.0 **** 0.06
35423 H 1.7162006505020884 24.05046279139995 86.29820879430416 H 0.0 **** 0.06
35424 H 1.0142289958774313 22.879348521990096 87.4407581917789 H 0.0 **** 0.06
35425 H 0.5164697597834902 24.587823162035335 87.49891424924047 H 0.0 **** 0.06
35426 C 72.82673634316379 46.0069159202763 18.90087847158263 C 0.0 **** -0.24
35427 H 72.84721921546056 45.98851976783591 17.81093362222181 H 0.0 **** 0.06
35428 H 72.11584192182053 45.26323583219289 19.262908622429322 H 0.0 **** 0.06
35429 H 72.52359083981413 46.99709490514675 19.240893296609627 H 0.0 **** 0.06
35430 H 73.8204676296032 45.778703645316455 19.287058517632516 H 0.0 **** 0.06
35431 C 50.22212676396444 108.01543632650153 91.68499634807554 C 0.0 **** -0.24
35432 H 50.85822908281162 108.03170459128785 92.56902055517597 H 0.0 **** 0.06
35433 H 49.38650186738508 107.33539295431689 91.85087509537092 H 0.0 **** 0.06
35434 H 50.802111021998485 107.67652366701377 90.82628906117205 H 0.0 **** 0.06
35435 H 49.840671878396364 109.01892130123906 91.492258533562 H 0.0 **** 0.06
35436 C 32.23610235565303 2.8365605810125203 101.91135985733783 C 0.0 **** -0.24
35437 H 32.79298268722499 3.770367591987167 101.97932599648999 H 0.0 **** 0.06
35438 H 31.21135542476668 2.9991124332999277 102.24770553282937 H 0.0 **** 0.06
35439 H 32.71026148356549 2.0841710998227683 102.54123911053256 H 0.0 **** 0.06
35440 H 32.2288786834751 2.4915419982371674 100.87734839118514 H 0.0 **** 0.06
35441 C 37.53708244022596 55.09124343461524 4.900982259343124 C 0.0 **** -0.24
35442 H 37.26419795390407 55.27258613244594 3.8617972205828437 H 0.0 **** 0.06
35443 H 38.15120707418126 55.91573528950505 5.264147319592979 H 0.0 **** 0.06
35444 H 38.100078654666305 54.16070465006045 4.970885916835101 H 0.0 **** 0.06
35445 H 36.63417998450899 55.01577193282044 5.506662783654235 H 0.0 **** 0.06
35446 C 28.918748084677077 60.031292081610275 86.10469734900107 C 0.0 **** -0.24
35447 H 29.19548221003916 61.01152955218369 86.49372879917485 H 0.0 **** 0.06
35448 H 29.04282157405129 59.28166945672422 86.88521660738354 H 0.0 **** 0.06
35449 H 29.55772855126355 59.783029959896965 85.25732341598672 H 0.0 **** 0.06
35450 H 27.877859747727427 60.0506886648992 85.78012685294681 H 0.0 **** 0.06
35451 C 52.57779542310419 24.691783432411114 28.0117988820881 C 0.0 **** -0.24
35452 H 53.43701149989417 25.339576713064332 28.186009424951123 H 0.0 **** 0.06
35453 H 51.99520830725905 24.60794657227109 28.930067047456703 H 0.0 **** 0.06
35454 H 52.92348133391084 23.70350147023464 27.708931399424046 H 0.0 **** 0.06
35455 H 51.956047094346076 25.1166590361683 27.224506445530267 H 0.0 **** 0.06
35456 C 94.08974123506692 35.896063209146774 107.832886616487 C 0.0 **** -0.24
35457 H 94.48653808354663 34.921516020494806 108.11720288594331 H 0.0 **** 0.06
35458 H 93.00008583880214 35.86376449543366 107.84969876196526 H 0.0 **** 0.06
35459 H 94.4299030062495 36.14782688240879 106.82757382058927 H 0.0 **** 0.06
35460 H 94.4434438010785 36.650720865681876 108.5351194867742 H 0.0 **** 0.06
35461 C 124.01766589206392 56.27145790425432 83.18458994412148 C 0.0 **** -0.24
35462 H 124.87409504910958 55.90580146304431 82.61794880428579 H 0.0 **** 0.06
35463 H 123.77634739647515 57.284388967287114 82.86388649959893 H 0.0 **** 0.06
35464 H 124.26069977782552 56.274023177669235 84.24786871232895 H 0.0 **** 0.06
35465 H 123.1618828736787 55.61972836372699 83.00957931778882 H 0.0 **** 0.06
35466 C 118.03311995467081 99.723958425095 0.9702827437278891 C 0.0 **** -0.24
35467 H 117.01356352633437 99.35564666335897 0.8594368736287521 H 0.0 **** 0.06
35468 H 118.0325298019448 100.81269650821287 0.9280607920010766 H 0.0 **** 0.06
35469 H 118.6505813704625 99.32810395540774 0.16345290387386058 H 0.0 **** 0.06
35470 H 118.43474249309983 99.39707307264088 1.9289479414446014 H 0.0 **** 0.06
35471 C 110.75382744477011 115.44550008391697 69.96295161717427 C 0.0 **** -0.24
35472 H 110.61065625561162 116.141095458954 69.13561019328023 H 0.0 **** 0.06
35473 H 109.79583565412484 115.25676079812301 70.4480824772329 H 0.0 **** 0.06
35474 H 111.44855048070825 115.87685964206506 70.68416974158617 H 0.0 **** 0.06
35475 H 111.16036174491731 114.50850539254525 69.58323661717424 H 0.0 **** 0.06
35476 C 68.3081892314276 4.304987881269 63.73056893990139 C 0.0 **** -0.24
35477 H 69.14329801909321 3.7045731610188852 63.369254392287075 H 0.0 **** 0.06
35478 H 68.63198021182518 4.900435944254639 64.58458694138548 H 0.0 **** 0.06
35479 H 67.49354368320365 3.6479369093243577 64.03322104532884 H 0.0 **** 0.06
35480 H 67.9659824011805 4.966202786526594 62.93480829020319 H 0.0 **** 0.06
35481 C 96.85357388758689 64.32990324865202 6.946461410910757 C 0.0 **** -0.24
35482 H 97.04963487434304 63.27693676587822 6.742306021090059 H 0.0 **** 0.06
35483 H 97.74951742922889 64.91387400825272 6.735916814169599 H 0.0 **** 0.06
35484 H 96.5776766311647 64.45134359567899 7.993790697726126 H 0.0 **** 0.06
35485 H 96.03613445854955 64.67551043881829 6.313176175680269 H 0.0 **** 0.06
35486 C 105.05599161197043 37.42584196354426 25.017840974110733 C 0.0 **** -0.24
35487 H 103.9935189995166 37.38457536664836 24.777879051183504 H 0.0 **** 0.06
35488 H 105.24042660317508 38.24896529803735 25.70822378189245 H 0.0 **** 0.06
35489 H 105.62943335119729 37.58120705410536 24.103757285409564 H 0.0 **** 0.06
35490 H 105.35940055789706 36.48720632867176 25.4831139503152 H 0.0 **** 0.06
35491 C 44.590188184622896 67.46669938148995 76.37682379975331 C 0.0 **** -0.24
35492 H 44.91426575108631 66.50700858067641 75.97194838157331 H 0.0 **** 0.06
35493 H 43.86774599004243 67.2987758670895 77.17501151501737 H 0.0 **** 0.06
35494 H 44.12657618132369 68.05646251518782 75.58486094500991 H 0.0 **** 0.06
35495 H 45.45274267672499 68.00392538819793 76.7722687649012 H 0.0 **** 0.06
35496 C 15.089492728984567 1.1871009948170013 66.30921917775608 C 0.0 **** -0.24
35497 H 15.469596601693041 1.4879359016310332 67.2854758599153 H 0.0 **** 0.06
35498 H 15.923851477063238 1.0528173858948264 65.6196351108771 H 0.0 **** 0.06
35499 H 14.421204114362922 1.9584148850264569 65.92557487583697 H 0.0 **** 0.06
35500 H 14.543747668634552 0.24824533702590657 66.40527703589372 H 0.0 **** 0.06
35501 C 24.64101406523622 1.4574728994812318 110.71960932771817 C 0.0 **** -0.24
35502 H 23.742959935532383 1.127369296483792 111.2413976743196 H 0.0 **** 0.06
35503 H 25.24323328402062 2.0730568681280204 111.38840686060594 H 0.0 **** 0.06
35504 H 24.35746651462989 2.0421863677913166 109.84476955470126 H 0.0 **** 0.06
35505 H 25.2186986469963 0.5887425707882983 110.40485098557893 H 0.0 **** 0.06
35506 C 69.30492299512682 29.26896955791438 39.93624333363772 C 0.0 **** -0.24
35507 H 69.15998106442669 29.150290733140118 38.86257398636576 H 0.0 **** 0.06
35508 H 68.44799842381062 28.853351636662943 40.466548660113176 H 0.0 **** 0.06
35509 H 69.39999115963798 30.32890804239662 40.174755869212106 H 0.0 **** 0.06
35510 H 70.2103961405522 28.74504916769149 40.24056463556229 H 0.0 **** 0.06
35511 C 119.48045782931459 63.585589603103045 86.4619014659404 C 0.0 **** -0.24
35512 H 120.10881401976101 62.82112693792348 86.00465640085287 H 0.0 **** 0.06
35513 H 119.3999933601813 63.396239615409144 87.53242552998199 H 0.0 **** 0.06
35514 H 118.48825268869908 63.55641509743921 86.0118053608337 H 0.0 **** 0.06
35515 H 119.92513451596534 64.56700473474788 86.2980885489552 H 0.0 **** 0.06
35516 C 12.81564145563135 34.61074812706812 63.798998625882106 C 0.0 **** -0.24
35517 H 11.876951300691275 34.05688824007367 63.7852973532371 H 0.0 **** 0.06
35518 H 13.588536322363979 34.004542422739185 64.27278438086512 H 0.0 **** 0.06
35519 H 12.683511330681341 35.53586750451557 64.36142600471524 H 0.0 **** 0.06
35520 H 13.113566868788809 34.845694340944114 62.77648676471087 H 0.0 **** 0.06
35521 C 19.47338932607741 31.639770796252662 59.828734440938945 C 0.0 **** -0.24
35522 H 20.532434333210006 31.864242667805 59.957904050787704 H 0.0 **** 0.06
35523 H 19.246911950960282 30.680552426156325 60.2937051890525 H 0.0 **** 0.06
35524 H 19.239302199076434 31.593195918104904 58.76453155644333 H 0.0 **** 0.06
35525 H 18.87679152363515 32.421936623685575 60.29793522383926 H 0.0 **** 0.06
35526 C 81.04388540819053 88.31927922119351 111.79440566581329 C 0.0 **** -0.24
35527 H 80.14768932228583 88.81615968209344 112.1661368828483 H 0.0 **** 0.06
35528 H 80.94905308598771 88.15337207405501 110.72078962015726 H 0.0 **** 0.06
35529 H 81.16454959536048 87.36190381764311 112.30134372739553 H 0.0 **** 0.06
35530 H 81.9139431338699 88.94705932072364 111.98943762121829 H 0.0 **** 0.06
35531 C 88.8573345172324 121.62781279140628 116.56220096188218 C 0.0 **** -0.24
35532 H 88.80156624868407 121.16421443224117 115.57771931030214 H 0.0 **** 0.06
35533 H 88.7991141225093 120.85607610840151 117.33040512651152 H 0.0 **** 0.06
35534 H 88.02785986791994 122.3248236076636 116.6828345038279 H 0.0 **** 0.06
35535 H 89.800530481842 122.1648530038869 116.6573158116077 H 0.0 **** 0.06
35536 C 66.1268077002948 101.4144054015448 52.92391690185616 C 0.0 **** -0.24
35537 H 66.96747358071333 100.9624893111626 53.4513194856101 H 0.0 **** 0.06
35538 H 65.19953913966349 101.17236435486683 53.44466821982596 H 0.0 **** 0.06
35539 H 66.08535952003247 101.02461681252484 51.90679664554057 H 0.0 **** 0.06
35540 H 66.2567958140863 102.49624764320987 52.89450323573969 H 0.0 **** 0.06
35541 C 26.427703259545552 14.357222444527281 104.49174006446833 C 0.0 **** -0.24
35542 H 26.86331481212872 15.351130846154774 104.59689424584423 H 0.0 **** 0.06
35543 H 25.824854542950362 14.129552777257118 105.3715472705639 H 0.0 **** 0.06
35544 H 27.223885400469356 13.619957255945451 104.3960966255251 H 0.0 **** 0.06
35545 H 25.797699074131287 14.329185364475336 103.60245699495184 H 0.0 **** 0.06
35546 C 12.172980818636802 86.91944858078026 58.96603842888288 C 0.0 **** -0.24
35547 H 12.01982797286854 86.44255072393102 59.93480796633884 H 0.0 **** 0.06
35548 H 12.544637110698318 87.93388888871564 59.11650192393324 H 0.0 **** 0.06
35549 H 11.228186188324173 86.95398872875447 58.4253400943748 H 0.0 **** 0.06
35550 H 12.901601714816081 86.34779045028702 58.39116341482435 H 0.0 **** 0.06
35551 C 11.101761342003744 9.359770253159695 118.542191945036 C 0.0 **** -0.24
35552 H 11.445129014148751 8.33068635375281 118.64134134755378 H 0.0 **** 0.06
35553 H 11.681639346484971 9.864375315973405 117.76850401614325 H 0.0 **** 0.06
35554 H 11.232876267504047 9.879211809564254 119.4915886307899 H 0.0 **** 0.06
35555 H 10.046470352868823 9.365835065087197 118.26761425987668 H 0.0 **** 0.06
35556 C 17.395129182549795 20.33691054002763 18.29124723935159 C 0.0 **** -0.24
35557 H 17.685715217977815 21.365094747737587 18.079807881703253 H 0.0 **** 0.06
35558 H 16.36138653840908 20.31551278554997 18.638676482907638 H 0.0 **** 0.06
35559 H 18.04713714395342 19.927002746923847 19.06240864386178 H 0.0 **** 0.06
35560 H 17.485382077204008 19.740256375764076 17.383024811203942 H 0.0 **** 0.06
35561 C 13.56981607037659 77.38928649802736 123.44837034707764 C 0.0 **** -0.24
35562 H 12.948751633359421 78.0921646279 124.0043038369851 H 0.0 **** 0.06
35563 H 13.692882604220756 76.47452737900433 124.02979634448825 H 0.0 **** 0.06
35564 H 14.546586359073956 77.83618807690232 123.26351504684133 H 0.0 **** 0.06
35565 H 13.091903120073255 77.15454012002849 122.49814354902094 H 0.0 **** 0.06
35566 C 74.5618782967139 87.96046496608176 33.245852640323534 C 0.0 **** -0.24
35567 H 75.106580579444 87.95449972485085 34.19045022359376 H 0.0 **** 0.06
35568 H 74.35298001208112 86.9350016088791 32.94158450171966 H 0.0 **** 0.06
35569 H 75.16470175637889 88.4519581582795 32.482056830822415 H 0.0 **** 0.06
35570 H 73.62433275939348 88.50074245883908 33.372435576163156 H 0.0 **** 0.06
35571 C 70.17205546352818 113.29831337982927 66.1210060724878 C 0.0 **** -0.24
35572 H 69.57136179176447 113.33887091100011 67.0290384768409 H 0.0 **** 0.06
35573 H 71.2297691590553 113.3066195017673 66.38502402030798 H 0.0 **** 0.06
35574 H 69.9461211897951 114.16258841088485 65.4971270492708 H 0.0 **** 0.06
35575 H 69.9417502364205 112.38333437022612 65.57425047937917 H 0.0 **** 0.06
35576 C 43.366983656571904 85.40298639856827 23.02642703926051 C 0.0 **** -0.24
35577 H 42.36113575474903 85.19662218354947 23.394573219209718 H 0.0 **** 0.06
35578 H 43.42269572404512 85.16089549041371 21.965260771511794 H 0.0 **** 0.06
35579 H 44.0855329716457 84.7956932874149 23.576905620391656 H 0.0 **** 0.06
35580 H 43.596485190046785 86.45885834006323 23.171545000975442 H 0.0 **** 0.06
35581 C 52.98915451869789 63.79507563174303 2.9165853481379145 C 0.0 **** -0.24
35582 H 52.546816146570535 64.28925241296375 3.781727991611831 H 0.0 **** 0.06
35583 H 53.040129712007186 64.4982257394116 2.0839592136452154 H 0.0 **** 0.06
35584 H 52.376236378289676 62.939951392290624 2.6327639942661563 H 0.0 **** 0.06
35585 H 53.994296198725465 63.45570424386912 3.167396006963912 H 0.0 **** 0.06
35586 C 65.63767235866581 109.3840150490835 60.99725402246878 C 0.0 **** -0.24
35587 H 65.73342781612575 108.88321519897457 61.96027482741272 H 0.0 **** 0.06
35588 H 66.3272354206947 108.93390965238994 60.28330331888276 H 0.0 **** 0.06
35589 H 65.87279691641338 110.44185907502163 61.11290930457898 H 0.0 **** 0.06
35590 H 64.61505654754002 109.27685712860992 60.63300975503512 H 0.0 **** 0.06
35591 C 114.97217990771509 90.67577160025888 37.34114066526243 C 0.0 **** -0.24
35592 H 115.34067341654824 89.98715575611672 38.10165527663548 H 0.0 **** 0.06
35593 H 114.90654722705204 90.15890985817018 36.38335204769291 H 0.0 **** 0.06
35594 H 115.65754822020966 91.51847283411465 37.253993778790175 H 0.0 **** 0.06
35595 H 113.98447690077577 91.03835818501099 37.62772660750838 H 0.0 **** 0.06
35596 C 10.338025868987586 102.81967895894331 48.27264884153613 C 0.0 **** -0.24
35597 H 9.533084958844256 103.24391487353373 48.87195066164171 H 0.0 **** 0.06
35598 H 10.94217176831944 103.62460725954338 47.85449234961062 H 0.0 **** 0.06
35599 H 9.914570197212186 102.22400215435042 47.46354304940561 H 0.0 **** 0.06
35600 H 10.963157225334726 102.18597187404009 48.90239154324375 H 0.0 **** 0.06
35601 C 117.12988331451166 98.20696477844609 86.24560127366155 C 0.0 **** -0.24
35602 H 116.91550894744633 99.27446954749689 86.29016442016186 H 0.0 **** 0.06
35603 H 117.89223245430874 98.02080129132861 85.48919817640117 H 0.0 **** 0.06
35604 H 116.22081124265432 97.66464664026046 85.98693995843664 H 0.0 **** 0.06
35605 H 117.4913360926981 97.86891529129866 87.2170646907309 H 0.0 **** 0.06
35606 C 86.30253760965559 14.025323402195852 77.74549730038126 C 0.0 **** -0.24
35607 H 86.56078496703148 14.872407009689255 77.1100389079106 H 0.0 **** 0.06
35608 H 86.52781663238316 13.095734429865047 77.22231813572465 H 0.0 **** 0.06
35609 H 85.23962192687391 14.060190565975972 77.98327915292077 H 0.0 **** 0.06
35610 H 86.88271546894218 14.073126809474218 78.66751532705338 H 0.0 **** 0.06
35611 C 45.243559623360625 76.18764288906823 117.99027938968771 C 0.0 **** -0.24
35612 H 45.321836246506265 76.8781502547543 117.15075390744522 H 0.0 **** 0.06
35613 H 45.11280802014946 76.75174048652534 118.9133972536743 H 0.0 **** 0.06
35614 H 46.15295971121898 75.58921761250497 118.05427497852435 H 0.0 **** 0.06
35615 H 44.386677868804554 75.5298864696795 117.84081729107282 H 0.0 **** 0.06
35616 C 77.24263174157875 78.27352716956611 124.18330838709947 C 0.0 **** -0.24
35617 H 76.99998061815728 78.36193352081014 125.24239547996602 H 0.0 **** 0.06
35618 H 76.49996909254577 78.81262072866869 123.5951986795383 H 0.0 **** 0.06
35619 H 77.24054083220886 77.22176240109698 123.89731502741593 H 0.0 **** 0.06
35620 H 78.2304655376675 78.6977767940433 124.001293555223 H 0.0 **** 0.06
35621 C 89.50408897913067 80.34792641803028 24.582605838455606 C 0.0 **** -0.24
35622 H 90.09930129136863 79.598025019154 24.061564666384186 H 0.0 **** 0.06
35623 H 88.76486901492412 79.85246290161632 25.212389515522375 H 0.0 **** 0.06
35624 H 88.99685294830252 80.97966230431004 23.853629796981465 H 0.0 **** 0.06
35625 H 90.15749434114305 80.96255798429468 25.20340716342139 H 0.0 **** 0.06
35626 C 49.55088083470604 67.29003847036387 75.20022909820034 C 0.0 **** -0.24
35627 H 49.427573667013206 68.08416833033772 74.46383055364606 H 0.0 **** 0.06
35628 H 48.7965096410104 67.39693055350949 75.97943052777225 H 0.0 **** 0.06
35629 H 50.544568801958995 67.35656072546271 75.6423927330855 H 0.0 **** 0.06
35630 H 49.43524481222706 66.32208162014211 74.71184339750903 H 0.0 **** 0.06
35631 C 67.09685236476139 97.7582284612722 73.29220935510583 C 0.0 **** -0.24
35632 H 66.30473887764003 97.28001136830316 73.86816189603395 H 0.0 **** 0.06
35633 H 67.0161245957006 98.84084471953537 73.3928214996666 H 0.0 **** 0.06
35634 H 67.00109459366985 97.48264138221003 72.24221178752094 H 0.0 **** 0.06
35635 H 68.06748318132958 97.42940904331573 73.66657607157 H 0.0 **** 0.06
35636 C 31.785552223837556 62.1769072895076 19.470434527082613 C 0.0 **** -0.24
35637 H 31.496512122786214 62.011021398703704 18.432506103746068 H 0.0 **** 0.06
35638 H 32.74962820104267 62.6854982340232 19.502097161390438 H 0.0 **** 0.06
35639 H 31.862921830288826 61.21879431526558 19.983378115308582 H 0.0 **** 0.06
35640 H 31.032692389305296 62.7931230287149 19.96268850480093 H 0.0 **** 0.06
35641 C 10.728808283776686 11.365343470343646 68.1993886682636 C 0.0 **** -0.24
35642 H 11.35372156648691 11.227337268692764 67.31766857381436 H 0.0 **** 0.06
35643 H 11.049364359576373 10.677913033986641 68.98306779764059 H 0.0 **** 0.06
35644 H 9.688553862245442 11.165323378339195 67.94260586732591 H 0.0 **** 0.06
35645 H 10.824266362131539 12.39152674366494 68.55435113829321 H 0.0 **** 0.06
35646 C 9.15695680947843 11.894708274728167 91.0207477790121 C 0.0 **** -0.24
35647 H 9.585752177086448 10.892551580647396 90.9964941982213 H 0.0 **** 0.06
35648 H 8.121665063520908 11.837494372254667 91.35802410145641 H 0.0 **** 0.06
35649 H 9.19120437224612 12.328391526249192 90.02204333235969 H 0.0 **** 0.06
35650 H 9.729703823919039 12.517292882664137 91.70819739733291 H 0.0 **** 0.06
35651 C 50.73974978972413 55.57996494213471 25.13815833961587 C 0.0 **** -0.24
35652 H 51.30694314106649 54.683238120215876 25.390274354851613 H 0.0 **** 0.06
35653 H 51.4129044579637 56.4364705066822 25.101054184811574 H 0.0 **** 0.06
35654 H 49.974639623259016 55.74977780917561 25.895095378714473 H 0.0 **** 0.06
35655 H 50.26670726800607 55.447765705575335 24.16503406816173 H 0.0 **** 0.06
35656 C 48.189548252531864 20.935542691627234 83.83829729913685 C 0.0 **** -0.24
35657 H 47.58756348276157 21.621943278139838 83.24297615043952 H 0.0 **** 0.06
35658 H 47.708925960425944 20.773890916997857 84.80371517752133 H 0.0 **** 0.06
35659 H 49.180845332639876 21.3618762302861 83.9922697698629 H 0.0 **** 0.06
35660 H 48.28019076142826 19.98486949029342 83.31360590059205 H 0.0 **** 0.06
35661 C 14.25295455087792 22.1473654995155 85.71168726250127 C 0.0 **** -0.24
35662 H 14.525801463756846 23.136205060955888 86.08107137509228 H 0.0 **** 0.06
35663 H 15.1131062881072 21.693885187129013 85.21858348842633 H 0.0 **** 0.06
35664 H 13.433291040892655 22.239972647891307 84.99992375113138 H 0.0 **** 0.06
35665 H 13.94100374631439 21.52098994713691 86.54642673164994 H 0.0 **** 0.06
35666 C 50.04185169290379 93.61956934343439 4.945029344084617 C 0.0 **** -0.24
35667 H 49.53784288940072 92.69641940002022 4.659183220703767 H 0.0 **** 0.06
35668 H 51.04135161270463 93.63591027279169 4.5101424541573465 H 0.0 **** 0.06
35669 H 50.11659027108303 93.67148160998008 6.031626332530664 H 0.0 **** 0.06
35670 H 49.47153972866187 94.47347079639306 4.579113657601226 H 0.0 **** 0.06
35671 C 23.58735726169806 79.7042419171106 97.41765388288326 C 0.0 **** -0.24
35672 H 22.615552428171725 80.00620443521888 97.02549093378911 H 0.0 **** 0.06
35673 H 24.306346340817356 79.64464379497888 96.59950868232997 H 0.0 **** 0.06
35674 H 23.49968767890988 78.72930207694317 97.89557435628686 H 0.0 **** 0.06
35675 H 23.928835863298048 80.43859007044028 98.14742020108346 H 0.0 **** 0.06
35676 C 44.373968180924436 13.375085200220155 52.99090135198085 C 0.0 **** -0.24
35677 H 44.06672771524799 12.444196081568279 52.51552109404514 H 0.0 **** 0.06
35678 H 44.60106964199949 14.116767843252347 52.2243574508128 H 0.0 **** 0.06
35679 H 45.26109934559358 13.197424477922354 53.599044170398415 H 0.0 **** 0.06
35680 H 43.56705386902112 13.74344431827663 53.62380617978448 H 0.0 **** 0.06
35681 C 113.7599039527613 76.08419430352615 12.24820833134595 C 0.0 **** -0.24
35682 H 113.67632297237046 76.54453581621118 13.233117293484128 H 0.0 **** 0.06
35683 H 113.45645415628948 75.03878268649777 12.309515039710504 H 0.0 **** 0.06
35684 H 114.79345915828935 76.14362350555797 11.906709386192105 H 0.0 **** 0.06
35685 H 113.1135626576611 76.61112016879929 11.546196382309176 H 0.0 **** 0.06
35686 C 4.619942911174007 59.53912685000978 64.55339375362547 C 0.0 **** -0.24
35687 H 4.252902207636396 58.98651208507607 65.41805017716194 H 0.0 **** 0.06
35688 H 5.482639433126593 60.13829623038043 64.84535178556843 H 0.0 **** 0.06
35689 H 3.8317991426272044 60.194167531007 64.1804850809678 H 0.0 **** 0.06
35690 H 4.909985365650186 58.8386449181931 63.77102230690814 H 0.0 **** 0.06
35691 C 23.512467239264936 115.75792406961384 20.093053410305707 C 0.0 **** -0.24
35692 H 24.05279731970171 116.27364378190816 20.886370021253683 H 0.0 **** 0.06
35693 H 23.03480713183444 116.4904183394747 19.443002928448305 H 0.0 **** 0.06
35694 H 22.753097847771357 115.11036428472423 20.532440721707864 H 0.0 **** 0.06
35695 H 24.2103094078181 115.15540030884517 19.51149503891469 H 0.0 **** 0.06
35696 C 6.858502209170069 48.124617476037 62.69044231627616 C 0.0 **** -0.24
35697 H 6.470089953593458 48.905240406120186 63.345594619674 H 0.0 **** 0.06
35698 H 7.100383221197717 47.24080774088276 63.28240155399749 H 0.0 **** 0.06
35699 H 7.75681651915437 48.484591163345726 62.19003249351998 H 0.0 **** 0.06
35700 H 6.105424681911359 47.8678612080098 61.94556370023224 H 0.0 **** 0.06
35701 C 26.892978746726072 30.259531139441847 88.6630782485893 C 0.0 **** -0.24
35702 H 26.15941016955489 30.89425219900569 89.15985184771225 H 0.0 **** 0.06
35703 H 27.341971175872914 29.585091582913407 89.391892192635 H 0.0 **** 0.06
35704 H 27.669644063795474 30.882270005605506 88.2173069127137 H 0.0 **** 0.06
35705 H 26.401634548451725 29.67883819971979 87.88309348174315 H 0.0 **** 0.06
35706 C 19.164320206580935 39.11383251876059 62.83013376471624 C 0.0 **** -0.24
35707 H 18.990245948684883 38.19175554661102 63.38517425314352 H 0.0 **** 0.06
35708 H 18.24345856861833 39.41673099357652 62.33240288279339 H 0.0 **** 0.06
35709 H 19.942896549688903 38.94725892115756 62.0852137281931 H 0.0 **** 0.06
35710 H 19.481597340076704 39.89755040906645 63.517886761262574 H 0.0 **** 0.06
35711 C 34.75141924809333 107.45246858091753 63.86582354729299 C 0.0 **** -0.24
35712 H 35.44687227150848 107.62425900542895 63.04435727139932 H 0.0 **** 0.06
35713 H 33.990747584645135 108.23460541479572 63.86647287461696 H 0.0 **** 0.06
35714 H 35.29401539185562 107.473135664501 64.81109759137587 H 0.0 **** 0.06
35715 H 34.27396403232194 106.48118427577432 63.74156191759428 H 0.0 **** 0.06
35716 C 59.47550082974357 20.392251544629715 16.134470110728586 C 0.0 **** -0.24
35717 H 58.71586879850207 21.17272384911496 16.09602739811575 H 0.0 **** 0.06
35718 H 59.51725357279952 19.975423900174235 17.140384167729906 H 0.0 **** 0.06
35719 H 60.44611278464782 20.81642108576993 15.875432672629557 H 0.0 **** 0.06
35720 H 59.22253138399583 19.60426176596104 15.424653014111982 H 0.0 **** 0.06
35721 C 114.33535913287227 30.1332360071342 111.38851045637448 C 0.0 **** -0.24
35722 H 114.35060229924355 29.178628411399586 110.86238337794738 H 0.0 **** 0.06
35723 H 114.85897956333866 30.03241792062886 112.33920392349324 H 0.0 **** 0.06
35724 H 113.302935727191 30.429944172866783 111.57068298506954 H 0.0 **** 0.06
35725 H 114.82903589155606 30.890083313620437 110.78019389550671 H 0.0 **** 0.06
35726 C 108.14266598883495 63.0132429465757 47.951048223430405 C 0.0 **** -0.24
35727 H 107.20444994877391 62.972858699600295 48.50494849704555 H 0.0 **** 0.06
35728 H 108.92423389396146 63.42439911979187 48.591373933634515 H 0.0 **** 0.06
35729 H 108.01962948240572 63.64806447851552 47.07407940989208 H 0.0 **** 0.06
35730 H 108.42156522424602 62.00821697661107 47.636040812326996 H 0.0 **** 0.06
35731 C 42.11600212057631 64.73526799986135 74.21569411566114 C 0.0 **** -0.24
35732 H 42.49520605663406 65.00148996851917 73.2297474267379 H 0.0 **** 0.06
35733 H 41.06730410676459 64.45012052281969 74.13716989565799 H 0.0 **** 0.06
35734 H 42.21133437666951 65.59094174896252 74.88421779347061 H 0.0 **** 0.06
35735 H 42.692249957076406 63.89875482149283 74.6124117725695 H 0.0 **** 0.06
35736 C 59.363587421813776 119.51992286421654 99.22319944768985 C 0.0 **** -0.24
35737 H 60.416819596214594 119.3207161636301 99.02743596402338 H 0.0 **** 0.06
35738 H 58.80431106827754 119.46610545832459 98.28889415410174 H 0.0 **** 0.06
35739 H 59.25614916024878 120.51521560565033 99.65492865607021 H 0.0 **** 0.06
35740 H 58.976917723019966 118.77688388240318 99.92215826846513 H 0.0 **** 0.06
35741 C 21.44323148077575 49.247096081493055 112.18923377419799 C 0.0 **** -0.24
35742 H 21.03783126943125 48.53618617782566 111.4690869155304 H 0.0 **** 0.06
35743 H 22.455903350568917 49.52466647214298 111.89512474641151 H 0.0 **** 0.06
35744 H 21.46481758976097 48.78968612341852 113.17824937732928 H 0.0 **** 0.06
35745 H 20.815256746893454 50.13741189505615 112.2146536306742 H 0.0 **** 0.06
35746 C 56.591333804348395 83.88061696060453 78.592128997515 C 0.0 **** -0.24
35747 H 55.72679859163662 84.23521711886383 78.03125264605566 H 0.0 **** 0.06
35748 H 56.86479187466885 84.62160310615184 79.34428922142584 H 0.0 **** 0.06
35749 H 57.428629294368776 83.72876861025793 77.91059611121969 H 0.0 **** 0.06
35750 H 56.345738848003464 82.93871106600392 79.08187287955573 H 0.0 **** 0.06
35751 C 40.4983481043802 13.655343429872225 37.60961023750403 C 0.0 **** -0.24
35752 H 41.42144903221194 13.430397480070742 37.07523797705355 H 0.0 **** 0.06
35753 H 39.88021285993574 14.318045889543868 37.00297275148165 H 0.0 **** 0.06
35754 H 40.73584743692996 14.143003973838649 38.555315790753895 H 0.0 **** 0.06
35755 H 39.956997925405545 12.729106059726735 37.80387309477162 H 0.0 **** 0.06
35756 C 118.99679779245969 23.494585748041686 69.37374631497447 C 0.0 **** -0.24
35757 H 118.88185746475122 24.04673110833602 70.30686150912538 H 0.0 **** 0.06
35758 H 118.01362010149586 23.24832195755789 68.97346710159717 H 0.0 **** 0.06
35759 H 119.55356854203714 22.576097765036366 69.56227727037177 H 0.0 **** 0.06
35760 H 119.54042468721346 24.107393095527016 68.65404171488707 H 0.0 **** 0.06
35761 C 105.3062491881333 103.37718000355166 98.3548608658167 C 0.0 **** -0.24
35762 H 106.2511525712784 103.20371773264317 98.86822336616655 H 0.0 **** 0.06
35763 H 104.90395673253413 104.34647024181893 98.65161327463306 H 0.0 **** 0.06
35764 H 104.59860117361792 102.59248583621925 98.62050537154295 H 0.0 **** 0.06
35765 H 105.4720227418288 103.36843390371239 97.27670204515107 H 0.0 **** 0.06
35766 C 0.16984876730491827 11.208142323803159 28.15346103679098 C 0.0 **** -0.24
35767 H -0.5121375606088954 10.92235795855309 28.95353702548691 H 0.0 **** 0.06
35768 H 0.3108154723905976 12.2901627415396 28.165993203436678 H 0.0 **** 0.06
35769 H -0.24938042135486604 10.907361586373682 27.19400938560357 H 0.0 **** 0.06
35770 H 1.131022303360874 10.714955994273762 28.302035737928612 H 0.0 **** 0.06
35771 C 80.35316034254302 55.26170356676684 91.62535044692467 C 0.0 **** -0.24
35772 H 79.87846766099503 54.285679618595054 91.72851945588926 H 0.0 **** 0.06
35773 H 79.5891932477787 56.02280348290523 91.46880056157983 H 0.0 **** 0.06
35774 H 81.03206726995481 55.24663336522252 90.77290516185528 H 0.0 **** 0.06
35775 H 80.9144338435467 55.49001755472713 92.53210650814756 H 0.0 **** 0.06
35776 C 62.26637388883931 120.64090042771446 121.82086996102728 C 0.0 **** -0.24
35777 H 61.412714552556494 121.29629365851105 121.64444369516269 H 0.0 **** 0.06
35778 H 62.76652384556978 120.9362683419528 122.74337824813267 H 0.0 **** 0.06
35779 H 62.96379735602807 120.72157640165815 120.98673470029306 H 0.0 **** 0.06
35780 H 61.92185713707282 119.61073656613101 121.90879782588416 H 0.0 **** 0.06
35781 C 112.98636903641378 24.02556488799064 3.062495010012384 C 0.0 **** -0.24
35782 H 112.50332832345492 24.872317654015603 2.5753491339449965 H 0.0 **** 0.06
35783 H 113.36367626242304 24.335721474155662 4.038170665611943 H 0.0 **** 0.06
35784 H 113.81511442884175 23.675674635000064 2.446808723272852 H 0.0 **** 0.06
35785 H 112.26373344555671 23.219558328542405 3.1910055155321118 H 0.0 **** 0.06
35786 C 105.12110515242216 6.938510387927103 15.073511251858548 C 0.0 **** -0.24
35787 H 104.50580155812042 6.175500446538582 15.5498787592866 H 0.0 **** 0.06
35788 H 104.9642231919716 6.910089916213131 13.995059558707126 H 0.0 **** 0.06
35789 H 106.17219514880168 6.746781028818514 15.293009467550547 H 0.0 **** 0.06
35790 H 104.84384698056965 7.920175420378346 15.455860965677672 H 0.0 **** 0.06
35791 C 21.49795523194743 85.80477393839638 14.836807593278479 C 0.0 **** -0.24
35792 H 22.3215624944753 85.5339017987927 15.49666289175616 H 0.0 **** 0.06
35793 H 21.534826192855036 86.87431794883372 14.62921697738841 H 0.0 **** 0.06
35794 H 20.550925518084256 85.56022092244393 15.318862881867403 H 0.0 **** 0.06
35795 H 21.58384699320922 85.24853236135553 13.902730678019111 H 0.0 **** 0.06
35796 C 37.295220510776076 47.035295744725204 115.01693966265344 C 0.0 **** -0.24
35797 H 37.268870025271795 48.1084418323444 115.202152392301 H 0.0 **** 0.06
35798 H 36.32238843119595 46.70562008335452 114.65117819468685 H 0.0 **** 0.06
35799 H 37.53137016410804 46.51190510531069 115.94396034141198 H 0.0 **** 0.06
35800 H 38.05852730057589 46.814290049512124 114.27020745674855 H 0.0 **** 0.06
35801 C 111.66381577590533 121.03361050679888 120.0911109116733 C 0.0 **** -0.24
35802 H 112.50219064058231 121.37495719035536 119.4847127902379 H 0.0 **** 0.06
35803 H 110.76867691226505 121.59443623821998 119.82174381173323 H 0.0 **** 0.06
35804 H 111.89029584901505 121.19314072324971 121.14531847818053 H 0.0 **** 0.06
35805 H 111.49552028314457 119.97135779022184 119.91184423910195 H 0.0 **** 0.06
35806 C 32.91772525980198 33.396454940677906 33.06783663381626 C 0.0 **** -0.24
35807 H 33.135162824750694 32.404045228186845 33.463712392516925 H 0.0 **** 0.06
35808 H 33.8359354802661 33.98399770625451 33.0364796422218 H 0.0 **** 0.06
35809 H 32.19146460482594 33.89228186131106 33.71097174369595 H 0.0 **** 0.06
35810 H 32.51005518242849 33.30391709536393 32.06093267132484 H 0.0 **** 0.06
35811 C 115.0936416259672 112.17002257230868 66.80446407601733 C 0.0 **** -0.24
35812 H 114.6870284193885 112.11636693790311 67.8153980959784 H 0.0 **** 0.06
35813 H 115.45338479432391 113.1809760656142 66.61194754210283 H 0.0 **** 0.06
35814 H 114.31364535904953 111.91786308583724 66.08593075531604 H 0.0 **** 0.06
35815 H 115.91879196420533 111.46547258576328 66.70735657224787 H 0.0 **** 0.06
35816 C 41.218698998725635 51.80474508358179 19.685499208374672 C 0.0 **** -0.24
35817 H 41.17009580756877 52.21614200834409 18.67710988560562 H 0.0 **** 0.06
35818 H 41.00553599575243 52.59278800706426 20.408321202996945 H 0.0 **** 0.06
35819 H 42.217017081875795 51.406376497839204 19.86671506237905 H 0.0 **** 0.06
35820 H 40.48386907061762 51.007123464830556 19.78838927216644 H 0.0 **** 0.06
35821 C 11.297594140114299 9.954032984295623 89.07707286210382 C 0.0 **** -0.24
35822 H 10.299021443499683 10.242433753187044 88.74867786132506 H 0.0 **** 0.06
35823 H 11.61947661099569 9.068116986687983 88.52805526468416 H 0.0 **** 0.06
35824 H 11.27895951931248 9.73293575471213 90.14423473879992 H 0.0 **** 0.06
35825 H 11.992657808146589 10.771681705496377 88.88726835483521 H 0.0 **** 0.06
35826 C 5.75153500875518 98.08194578189591 109.90119367924795 C 0.0 **** -0.24
35827 H 5.334848001394182 97.84194883454393 110.87972888319437 H 0.0 **** 0.06
35828 H 6.092474076936821 97.16603861786137 109.417749405858 H 0.0 **** 0.06
35829 H 6.5916214888863855 98.76464926610288 110.02144037716286 H 0.0 **** 0.06
35830 H 4.98482608524548 98.5535910954402 109.28683725852227 H 0.0 **** 0.06
35831 C 33.14076849429306 51.33920310578221 10.878082810502974 C 0.0 **** -0.24
35832 H 32.12473101063379 50.95245480160815 10.814772694648127 H 0.0 **** 0.06
35833 H 33.44734141094112 51.38580586957319 11.924141632621456 H 0.0 **** 0.06
35834 H 33.177219082933 52.337693603418415 10.443263596313614 H 0.0 **** 0.06
35835 H 33.81574810679273 50.67997433984268 10.330749500278955 H 0.0 **** 0.06
35836 C 111.00427890421489 52.486945813017655 2.104860304090323 C 0.0 **** -0.24
35837 H 111.0695487469409 52.155393094317844 1.0681682605517153 H 0.0 **** 0.06
35838 H 111.62936262558611 53.369148266317154 2.243913865111722 H 0.0 **** 0.06
35839 H 111.3471586184361 51.68918807910694 2.7628798677048962 H 0.0 **** 0.06
35840 H 109.96934981023001 52.73345630152437 2.3420776250504787 H 0.0 **** 0.06
35841 C 76.26473564959696 88.24505573233303 3.1632492493605042 C 0.0 **** -0.24
35842 H 76.79878185376384 89.02991304371402 3.6984607363489914 H 0.0 **** 0.06
35843 H 76.47741978126095 87.28041078464494 3.624926989762102 H 0.0 **** 0.06
35844 H 76.58883802180736 88.22979465819303 2.122531481045044 H 0.0 **** 0.06
35845 H 75.19363349367984 88.4408830520936 3.2059283240505607 H 0.0 **** 0.06
35846 C 41.50842032914639 38.52757995235518 39.0572399491474 C 0.0 **** -0.24
35847 H 41.65776023696165 39.523169181602185 38.638287165529505 H 0.0 **** 0.06
35848 H 40.86626494335793 38.595638216210034 39.934837345698895 H 0.0 **** 0.06
35849 H 42.47215148566795 38.10531593445651 39.3428885009705 H 0.0 **** 0.06
35850 H 41.038313187869505 37.88725146931594 38.310889217682984 H 0.0 **** 0.06
35851 C 0.926831677810398 56.10549318304865 54.088534224767955 C 0.0 **** -0.24
35852 H 1.4485796794006944 55.536007958247666 53.31973302735622 H 0.0 **** 0.06
35853 H 0.3835858697380843 56.92938406692767 53.624249200221485 H 0.0 **** 0.06
35854 H 1.6501515967473495 56.50160350121715 54.801739421650424 H 0.0 **** 0.06
35855 H 0.22291388303561632 55.453909799591685 54.607730354714604 H 0.0 **** 0.06
35856 C 42.39293514966732 67.3386907715705 22.981965873904656 C 0.0 **** -0.24
35857 H 42.65791400570248 66.5797185519857 22.245559663554182 H 0.0 **** 0.06
35858 H 41.507922464127546 67.0173220381289 23.532505129520644 H 0.0 **** 0.06
35859 H 42.18308784729106 68.27999463807953 22.474935502450506 H 0.0 **** 0.06
35860 H 43.22234320572636 67.47602215096072 23.676229593368312 H 0.0 **** 0.06
35861 C 15.558138660598559 86.54639991774997 5.745712409681765 C 0.0 **** -0.24
35862 H 14.642962938449898 87.02738981770568 5.400126193411413 H 0.0 **** 0.06
35863 H 15.337620301915308 85.52351606344055 6.0514001510235005 H 0.0 **** 0.06
35864 H 15.961709221584158 87.10002923157754 6.593875204916017 H 0.0 **** 0.06
35865 H 16.28993993433545 86.53539931209932 4.938045038190925 H 0.0 **** 0.06
35866 C 63.96510882025751 23.496797598524523 98.45040082104303 C 0.0 **** -0.24
35867 H 63.439897876135774 23.4378239601229 97.49655212366986 H 0.0 **** 0.06
35868 H 63.95167104862645 22.519701001960414 98.93318790441272 H 0.0 **** 0.06
35869 H 63.46998535545586 24.22683280225654 99.0915639213779 H 0.0 **** 0.06
35870 H 64.99662326449356 23.804212666582472 98.27856767039124 H 0.0 **** 0.06
35871 C 61.153463080410575 66.50244057953151 39.99678645025967 C 0.0 **** -0.24
35872 H 62.221531935386835 66.68344125797213 40.12010480522933 H 0.0 **** 0.06
35873 H 60.66920516624374 67.41372189997992 39.64265447614867 H 0.0 **** 0.06
35874 H 60.721486963096524 66.20988566064702 40.9547917010219 H 0.0 **** 0.06
35875 H 61.00138695595257 65.70410592424926 39.27132779162054 H 0.0 **** 0.06
35876 C 46.60711814073312 26.0838071634021 36.508079652672905 C 0.0 **** -0.24
35877 H 46.65376353479155 27.03012648324659 37.04680467475981 H 0.0 **** 0.06
35878 H 47.183080533022576 25.33046204361051 37.046320496959254 H 0.0 **** 0.06
35879 H 47.02173122757188 26.214317352967356 35.509122336922076 H 0.0 **** 0.06
35880 H 45.56814917991079 25.761495509685403 36.43132377992782 H 0.0 **** 0.06
35881 C 33.83822267477842 8.317551020072187 46.17243310133776 C 0.0 **** -0.24
35882 H 34.06288811536022 8.953696511467172 47.028045755404634 H 0.0 **** 0.06
35883 H 32.93126693733995 8.673919604030687 45.68340706671472 H 0.0 **** 0.06
35884 H 33.68945745601889 7.291948273734334 46.511249659755265 H 0.0 **** 0.06
35885 H 34.6680121865237 8.350715118506571 45.467655744654195 H 0.0 **** 0.06
35886 C 79.13864429427105 23.296801604671295 123.88893719634288 C 0.0 **** -0.24
35887 H 78.62210342473747 23.66359935128974 124.7761314647431 H 0.0 **** 0.06
35888 H 80.19679952403197 23.552208714604077 123.95331480781205 H 0.0 **** 0.06
35889 H 78.70608333119577 23.758341214250066 123.0003186063188 H 0.0 **** 0.06
35890 H 79.0293055104319 22.214713256701387 123.82640341567426 H 0.0 **** 0.06
35891 C 59.07442498985813 2.7445137183507313 18.078040347143656 C 0.0 **** -0.24
35892 H 58.44366343108716 2.9979599378027046 18.92944184860073 H 0.0 **** 0.06
35893 H 59.54414584995928 1.7760673748128397 18.24965821831387 H 0.0 **** 0.06
35894 H 59.84558749589766 3.505775401434505 17.958162192697387 H 0.0 **** 0.06
35895 H 58.46556058093847 2.698331514307256 17.175541592328273 H 0.0 **** 0.06
35896 C 74.34047794744811 66.11463700730513 78.87881146457099 C 0.0 **** -0.24
35897 H 73.90821957236136 66.77155200517413 78.12311498932661 H 0.0 **** 0.06
35898 H 75.41745868007825 66.27883121924293 78.92850587561351 H 0.0 **** 0.06
35899 H 74.14203703370174 65.07588871436707 78.6141174661107 H 0.0 **** 0.06
35900 H 73.89439720123113 66.33508863278072 79.84848292552708 H 0.0 **** 0.06
35901 C 31.02147119882534 41.33381061545714 77.73070638710175 C 0.0 **** -0.24
35902 H 31.635102257178886 41.87837142791696 77.01316674025782 H 0.0 **** 0.06
35903 H 29.970012460971475 41.44107807109077 77.46420700220614 H 0.0 **** 0.06
35904 H 31.187347556498253 41.73678788086562 78.7299901728718 H 0.0 **** 0.06
35905 H 31.295339182940893 40.27859439894229 77.71319045986115 H 0.0 **** 0.06
35906 C 95.46471549422458 41.9136742252264 2.1751011788883687 C 0.0 **** -0.24
35907 H 95.03463214498129 41.811809552648924 1.1786361176110915 H 0.0 **** 0.06
35908 H 96.36673543408193 41.305024090031665 2.245484407258431 H 0.0 **** 0.06
35909 H 94.74189430660144 41.578815349074496 2.9194262413731167 H 0.0 **** 0.06
35910 H 95.71605717238157 42.958180652345064 2.3570554235648444 H 0.0 **** 0.06
35911 C 35.64568943523739 88.48280763359847 14.742550993564937 C 0.0 **** -0.24
35912 H 36.319035602610086 88.37300525879019 15.593311327436286 H 0.0 **** 0.06
35913 H 36.20227662102849 88.33554856023633 13.817613094539357 H 0.0 **** 0.06
35914 H 35.210837782514716 89.48259505529026 14.750911187501792 H 0.0 **** 0.06
35915 H 34.85083697097798 87.74082290727145 14.811434068552593 H 0.0 **** 0.06
35916 C 67.84192628606516 31.981089781636314 73.68477755363452 C 0.0 **** -0.24
35917 H 66.83258341656583 32.390105803261974 73.70347200508519 H 0.0 **** 0.06
35918 H 68.04504257586362 31.55872670859958 72.70047478737368 H 0.0 **** 0.06
35919 H 67.93229010495398 31.20166655458479 74.44101461394351 H 0.0 **** 0.06
35920 H 68.55971549880786 32.7745457172297 73.89505375309326 H 0.0 **** 0.06
35921 C 49.240942017931246 60.02393511617777 26.692272265237598 C 0.0 **** -0.24
35922 H 49.16137678783778 58.96826664363711 26.951972406004373 H 0.0 **** 0.06
35923 H 49.25574303232173 60.13138593756477 25.607971142713957 H 0.0 **** 0.06
35924 H 50.161454865847475 60.43203613017377 27.11093970325129 H 0.0 **** 0.06
35925 H 48.38676354449382 60.564150962824115 27.099794842339065 H 0.0 **** 0.06
35926 C 35.525639440321925 29.4573544556319 64.85871991758663 C 0.0 **** -0.24
35927 H 34.528657423476716 29.886621452664997 64.76538531058085 H 0.0 **** 0.06
35928 H 35.8051519215544 28.981009625189643 63.918416699811615 H 0.0 **** 0.06
35929 H 35.52811190731762 28.71479281660055 65.65712698588672 H 0.0 **** 0.06
35930 H 36.239827946110836 30.245560214802197 65.0934113659153 H 0.0 **** 0.06
35931 C 65.17598385180048 20.39949679097643 26.659428503247213 C 0.0 **** -0.24
35932 H 65.0227811665826 19.710670916707045 27.49018752955729 H 0.0 **** 0.06
35933 H 65.33859462976352 19.833355852628785 25.742514735384155 H 0.0 **** 0.06
35934 H 66.04763785056142 21.023261962208153 26.86128019480897 H 0.0 **** 0.06
35935 H 64.29615117915796 21.03293239049492 26.545312199603686 H 0.0 **** 0.06
35936 C 13.942683486490239 22.28929946423567 52.57885607240809 C 0.0 **** -0.24
35937 H 14.590470889922926 22.498248130263903 53.43035219946064 H 0.0 **** 0.06
35938 H 12.915573298962101 22.553281267119985 52.83004117909513 H 0.0 **** 0.06
35939 H 13.996782176888587 21.22876462726721 52.33380938864096 H 0.0 **** 0.06
35940 H 14.27005452410856 22.877528195482384 51.72125424129174 H 0.0 **** 0.06
35941 C 78.55976490358313 45.03072920550579 0.7110378855620638 C 0.0 **** -0.24
35942 H 78.3519703122736 45.80151264000034 -0.02976431692411552 H 0.0 **** 0.06
35943 H 77.64790557675911 44.80257540027716 1.2632290981922267 H 0.0 **** 0.06
35944 H 79.32340903899531 45.38755255177992 1.401878982673054 H 0.0 **** 0.06
35945 H 78.91507546362335 44.13082989769822 0.20824927246758307 H 0.0 **** 0.06
35946 C 17.439582295247618 5.833172993809228 20.442223276338126 C 0.0 **** -0.24
35947 H 16.77038391366486 6.664990991402675 20.222048212835176 H 0.0 **** 0.06
35948 H 18.184689601058267 5.748814963392391 19.651148354156618 H 0.0 **** 0.06
35949 H 16.862667349313 4.910131996221992 20.49918965089779 H 0.0 **** 0.06
35950 H 17.93758286957069 6.011008527426725 21.39429656618215 H 0.0 **** 0.06
35951 C 77.74170942202161 46.23358395045712 89.98482377805362 C 0.0 **** -0.24
35952 H 78.27245818588369 46.15059242664239 90.93306997232253 H 0.0 **** 0.06
35953 H 78.44694195975278 46.50140198854038 89.19665413222162 H 0.0 **** 0.06
35954 H 76.97486879818494 47.00408858971355 90.06367653233173 H 0.0 **** 0.06
35955 H 77.27507650379795 45.27844614960158 89.7446005719961 H 0.0 **** 0.06
35956 C 70.16727213506442 103.34203969880161 66.79967201723983 C 0.0 **** -0.24
35957 H 69.61434734864321 103.52741241077234 67.71988165609818 H 0.0 **** 0.06
35958 H 70.24893746709358 102.26703050945741 66.63526158554177 H 0.0 **** 0.06
35959 H 71.16530186997886 103.7737634754418 66.88165368108358 H 0.0 **** 0.06
35960 H 69.64186024361891 103.79957069451814 65.96179529404148 H 0.0 **** 0.06
35961 C 113.10457153853986 49.59452940384048 32.215865413254406 C 0.0 **** -0.24
35962 H 113.33994554240408 50.499518250333686 32.77629292292201 H 0.0 **** 0.06
35963 H 112.60936559716089 48.87934844395908 32.87315683397483 H 0.0 **** 0.06
35964 H 114.02412216657203 49.15828842158959 31.828658708821493 H 0.0 **** 0.06
35965 H 112.44219079785245 49.84349011342693 31.38607803718567 H 0.0 **** 0.06
35966 C 57.02321448283104 120.92803376406766 6.514876037429175 C 0.0 **** -0.24
35967 H 57.73883997268817 121.3316428166256 7.231658874353215 H 0.0 **** 0.06
35968 H 57.086608028958466 121.49148553523901 5.583932392714402 H 0.0 **** 0.06
35969 H 56.016252032370005 121.01023177555811 6.922341060744245 H 0.0 **** 0.06
35970 H 57.25396840704005 119.88020027337222 6.32183632949679 H 0.0 **** 0.06
35971 C 5.615264107672374 115.8967589924836 93.5123834990426 C 0.0 **** -0.24
35972 H 5.669533480340874 116.20629002290443 92.46886346508234 H 0.0 **** 0.06
35973 H 6.5758778674394875 115.48323954360279 93.81983526404264 H 0.0 **** 0.06
35974 H 4.839764194642896 115.13936633468526 93.6271918629647 H 0.0 **** 0.06
35975 H 5.3747739430118315 116.7589236252557 94.13404442607566 H 0.0 **** 0.06
35976 C 52.207160842248925 65.18021134091092 49.4065122224904 C 0.0 **** -0.24
35977 H 51.35555568384842 65.40672254675744 48.76547322137794 H 0.0 **** 0.06
35978 H 53.13265784684637 65.40009114949717 48.87338472769091 H 0.0 **** 0.06
35979 H 52.18617212517984 64.1243409052397 49.6786810530623 H 0.0 **** 0.06
35980 H 52.15366176888881 65.7892944799934 50.30920836084278 H 0.0 **** 0.06
35981 C 32.20882662267383 81.08788070048016 72.30405186914811 C 0.0 **** -0.24
35982 H 33.1548583284452 81.61373993163147 72.42764279426078 H 0.0 **** 0.06
35983 H 32.11947406164692 80.3158631133953 73.0687738508231 H 0.0 **** 0.06
35984 H 32.175800102994565 80.62729844549708 71.31692729861419 H 0.0 **** 0.06
35985 H 31.385173997608476 81.79462131139687 72.40286353289432 H 0.0 **** 0.06
35986 C 84.05181637321243 92.2147143186337 63.91201959022966 C 0.0 **** -0.24
35987 H 84.73683196116943 92.46409839892686 64.72126975951562 H 0.0 **** 0.06
35988 H 83.8950030722182 91.13590418120958 63.88860955831393 H 0.0 **** 0.06
35989 H 84.47606889791061 92.54099384919965 62.9626892223084 H 0.0 **** 0.06
35990 H 83.09844441340923 92.71681079584545 64.07574718735025 H 0.0 **** 0.06
35991 C 110.22540302729166 98.6127292573442 74.42162319021995 C 0.0 **** -0.24
35992 H 109.55169134286453 99.25497874306166 74.98718553971402 H 0.0 **** 0.06
35993 H 109.9096570683304 98.58275918321931 73.37876606031742 H 0.0 **** 0.06
35994 H 110.20224890766355 97.6054338903071 74.83710077232116 H 0.0 **** 0.06
35995 H 111.23972513731823 99.00796799166324 74.48328150633627 H 0.0 **** 0.06
35996 C 75.62700071241156 39.533537523366846 77.45285100790755 C 0.0 **** -0.24
35997 H 76.19287947044222 40.465217016642384 77.45015505855145 H 0.0 **** 0.06
35998 H 75.51316818865897 39.17514222425248 76.42918664052226 H 0.0 **** 0.06
35999 H 74.64427559843492 39.70751751050372 77.88962091402823 H 0.0 **** 0.06
36000 H 76.16005170992855 38.78807946862909 78.04277525459463 H 0.0 **** 0.06
36001 C 24.127580599124016 37.9344491198128 91.13194215149656 C 0.0 **** -0.24
36002 H 23.5057435892193 38.71667276562431 90.69410459756506 H 0.0 **** 0.06
36003 H 24.781321873858225 37.51895295729281 90.36523035505817 H 0.0 **** 0.06
36004 H 23.49066321792875 37.147356929522715 91.53331447582083 H 0.0 **** 0.06
36005 H 24.73108901402847 38.35905427541539 91.93424992772337 H 0.0 **** 0.06
36006 C 113.80518373829116 29.573577274470885 21.235478893160007 C 0.0 **** -0.24
36007 H 114.52717688927578 30.38926302118567 21.264587747583818 H 0.0 **** 0.06
36008 H 114.30792937090595 28.654477866680303 20.934751765179442 H 0.0 **** 0.06
36009 H 113.01977997258582 29.809973606344855 20.51689454880173 H 0.0 **** 0.06
36010 H 113.36586149055722 29.441826874755257 22.223815602979613 H 0.0 **** 0.06
36011 C 30.069475673507384 6.660797578689284 28.541593884550586 C 0.0 **** -0.24
36012 H 29.583607248736 5.751946863850037 28.898430022172917 H 0.0 **** 0.06
36013 H 29.39603250686946 7.191167485078779 27.868974583429505 H 0.0 **** 0.06
36014 H 30.983625681505515 6.398657488715884 28.010168467988194 H 0.0 **** 0.06
36015 H 30.31214932906866 7.29972984673563 29.39102945657288 H 0.0 **** 0.06
36016 C 73.6680968217334 96.1055778859989 109.9822699721279 C 0.0 **** -0.24
36017 H 73.35737045860654 96.8862615902241 109.2885591226267 H 0.0 **** 0.06
36018 H 74.28526735201456 96.54346315520156 110.7673303397208 H 0.0 **** 0.06
36019 H 74.24331034463091 95.35106858733539 109.44570792934113 H 0.0 **** 0.06
36020 H 72.78691706669801 95.64344290823973 110.4272230087664 H 0.0 **** 0.06
36021 C 6.965438175702815 116.28284524019165 64.76485964263662 C 0.0 **** -0.24
36022 H 7.566878960773323 116.28515785759643 63.85618406535946 H 0.0 **** 0.06
36023 H 6.220474842946999 115.48882382393217 64.70621348233794 H 0.0 **** 0.06
36024 H 6.464924214275925 117.245292122909 64.8713701241079 H 0.0 **** 0.06
36025 H 7.611040508266683 116.11290514977682 65.62662568556044 H 0.0 **** 0.06
36026 C 34.785826685349946 87.59254660841121 58.701839545343006 C 0.0 **** -0.24
36027 H 35.22064740999008 87.780678547801 57.72046653340911 H 0.0 **** 0.06
36028 H 35.40706575095126 86.87918325858126 59.24360746075649 H 0.0 **** 0.06
36029 H 33.78239506541996 87.184331607814 58.58263726278062 H 0.0 **** 0.06
36030 H 34.73403514550773 88.52707493489595 59.26100694618961 H 0.0 **** 0.06
36031 C 27.419577641983693 88.02671446167761 77.38204720191504 C 0.0 **** -0.24
36032 H 27.159005159711967 88.47345378471232 76.42217496836031 H 0.0 **** 0.06
36033 H 26.95421290960263 87.04432163072266 77.46262450210867 H 0.0 **** 0.06
36034 H 27.060968389115942 88.66599994794132 78.18906281666546 H 0.0 **** 0.06
36035 H 28.50188536962716 87.92425034876129 77.45270645363809 H 0.0 **** 0.06
36036 C 11.317229653725803 71.56620061492913 17.91271799931942 C 0.0 **** -0.24
36037 H 12.189949890837568 72.19234830996889 18.097361283236236 H 0.0 **** 0.06
36038 H 11.062302307967684 71.01954499456122 18.821075546074088 H 0.0 **** 0.06
36039 H 11.539960923712158 70.85961417367749 17.11260854417132 H 0.0 **** 0.06
36040 H 10.47568813517222 72.19483696101075 17.61856664298933 H 0.0 **** 0.06
36041 C 115.25276603766713 19.994390885962048 37.03116988750475 C 0.0 **** -0.24
36042 H 114.79361812787312 19.7214115378288 36.08069042219044 H 0.0 **** 0.06
36043 H 115.56678603314046 21.037149818747167 36.995534083350776 H 0.0 **** 0.06
36044 H 116.12006837881407 19.359160447884392 37.210829681615195 H 0.0 **** 0.06
36045 H 114.5297496940112 19.858828198324645 37.83512249659487 H 0.0 **** 0.06
36046 C 34.013229467145514 110.82967154482148 14.706420033975274 C 0.0 **** -0.24
36047 H 33.93870032119033 111.83411926403538 15.122592918278912 H 0.0 **** 0.06
36048 H 35.06207824910612 110.57787614309862 14.548977903505314 H 0.0 **** 0.06
36049 H 33.482710624348556 110.79098397372246 13.754715369815777 H 0.0 **** 0.06
36050 H 33.567860235072295 110.11634654278119 15.399755728162798 H 0.0 **** 0.06
36051 C 66.7390387891827 99.26878189136815 76.55623844225443 C 0.0 **** -0.24
36052 H 66.79854130957706 99.3665980489525 75.47258669039854 H 0.0 **** 0.06
36053 H 65.75187349048963 98.89773738356014 76.83397828100948 H 0.0 **** 0.06
36054 H 66.9044072174822 100.24183677347759 77.01860429199286 H 0.0 **** 0.06
36055 H 67.50023151584872 98.56874087022123 76.90064504477147 H 0.0 **** 0.06
36056 C 5.725379207971969 8.310453297683694 77.47187018647875 C 0.0 **** -0.24
36057 H 5.2160568584023395 7.52486048213791 76.91391735034236 H 0.0 **** 0.06
36058 H 5.506170224423272 8.201571247214872 78.53468621094342 H 0.0 **** 0.06
36059 H 5.377479298855405 9.284647786353844 77.12715508343737 H 0.0 **** 0.06
36060 H 6.799883393577204 8.230965623663508 77.31220466421681 H 0.0 **** 0.06
36061 C 5.850644073042773 68.15717451015823 81.15517588289958 C 0.0 **** -0.24
36062 H 4.978484620901867 68.5056185568143 80.60401962320239 H 0.0 **** 0.06
36063 H 6.7482916691658374 68.62103131265793 80.74629280922075 H 0.0 **** 0.06
36064 H 5.928004064872368 67.0735310576272 81.06508136778983 H 0.0 **** 0.06
36065 H 5.747844149264523 68.42674598322567 82.20667393120665 H 0.0 **** 0.06
36066 C 27.386127049745028 98.01920214192178 27.428936419209492 C 0.0 **** -0.24
36067 H 27.14984793247868 98.38754171209087 26.43073411680703 H 0.0 **** 0.06
36068 H 26.467282921865092 97.71283152036554 27.929696102708775 H 0.0 **** 0.06
36069 H 27.86745152887221 98.81012050761358 28.003916920563668 H 0.0 **** 0.06
36070 H 28.060262925419067 97.16523083824434 27.35055507284872 H 0.0 **** 0.06
36071 C 104.25407010556722 96.07272324017765 24.882483992098926 C 0.0 **** -0.24
36072 H 104.0909209627291 96.7572410207512 25.714666334663292 H 0.0 **** 0.06
36073 H 105.30485578287146 96.09331498626919 24.5953775857498 H 0.0 **** 0.06
36074 H 103.63886520901163 96.37863582627747 24.035143307255595 H 0.0 **** 0.06
36075 H 103.97945513612932 95.06214302294329 25.184943830194527 H 0.0 **** 0.06
36076 C 28.87287327766819 32.74337602259146 1.6116470865948145 C 0.0 **** -0.24
36077 H 28.397586307863776 33.60679744390194 1.1467057743986402 H 0.0 **** 0.06
36078 H 29.50905764177162 32.24230335552639 0.8817016281787318 H 0.0 **** 0.06
36079 H 28.106406637170267 32.05250358456959 1.9622520621089024 H 0.0 **** 0.06
36080 H 29.478408094009637 33.07413427480893 2.4558528120778362 H 0.0 **** 0.06
36081 C 58.04538119827146 4.206172151152316 43.59617388999428 C 0.0 **** -0.24
36082 H 56.980544766878495 4.040638167875045 43.75837609165079 H 0.0 **** 0.06
36083 H 58.54174888417958 4.343857404918936 44.55746035533508 H 0.0 **** 0.06
36084 H 58.1856305293436 5.097819959691066 42.98439037841679 H 0.0 **** 0.06
36085 H 58.47364868444345 3.343659982922645 43.08599901696567 H 0.0 **** 0.06
36086 C 9.66970686642047 122.19872290570102 90.42447899776994 C 0.0 **** -0.24
36087 H 9.249246109564012 121.54183431118506 91.18636801128673 H 0.0 **** 0.06
36088 H 9.701118336565397 121.67230785814448 89.47012095855509 H 0.0 **** 0.06
36089 H 10.68053012648232 122.4891301415342 90.71300065722495 H 0.0 **** 0.06
36090 H 9.049382088920442 123.08859262509642 90.3292863882108 H 0.0 **** 0.06
36091 C 75.03730434376527 89.13308923316356 92.78141744781001 C 0.0 **** -0.24
36092 H 74.53034833234719 88.83423116664528 93.69827736294232 H 0.0 **** 0.06
36093 H 75.59270674572727 90.05464350006991 92.95712071782444 H 0.0 **** 0.06
36094 H 74.29983815432925 89.29750310345423 91.99561504242658 H 0.0 **** 0.06
36095 H 75.72630624264258 88.34586129742036 92.47366377276549 H 0.0 **** 0.06
36096 C 82.09239762642584 69.83309768111835 93.8912963832999 C 0.0 **** -0.24
36097 H 81.47991594100401 68.95412947878683 94.09324145685991 H 0.0 **** 0.06
36098 H 82.02928331745106 70.08441350623727 92.83253831480181 H 0.0 **** 0.06
36099 H 83.12875806886109 69.6212041886071 94.15412500402056 H 0.0 **** 0.06
36100 H 81.7306574548484 70.6712877812098 94.48707245336834 H 0.0 **** 0.06
36101 C 90.92612986320273 1.5363192234957381 61.296130183504346 C 0.0 **** -0.24
36102 H 90.25931828086638 1.8305538013389366 60.48569756501101 H 0.0 **** 0.06
36103 H 91.24388382237873 2.4234346925179437 61.84378359618596 H 0.0 **** 0.06
36104 H 91.79987777592538 1.032010730419401 60.88233883118474 H 0.0 **** 0.06
36105 H 90.40146511183184 0.8600196861873002 61.970366414948046 H 0.0 **** 0.06
36106 C 71.64224133125512 4.964232087127925 67.02908574672132 C 0.0 **** -0.24
36107 H 70.95442149157387 4.233369775127386 67.45432668455123 H 0.0 **** 0.06
36108 H 72.6671078815379 4.6755878105943225 67.26301470646267 H 0.0 **** 0.06
36109 H 71.43596731650976 5.947322227292574 67.4519681185423 H 0.0 **** 0.06
36110 H 71.51291901510129 4.9989817869515605 65.94737788424155 H 0.0 **** 0.06
36111 C 18.817445480404785 100.26097482164994 69.08892052460189 C 0.0 **** -0.24
36112 H 19.618145605427117 100.76912603795381 68.55143809248577 H 0.0 **** 0.06
36113 H 19.240632453300094 99.46911116546329 69.70704789754004 H 0.0 **** 0.06
36114 H 18.117326185889397 99.82986577508063 68.37319663919263 H 0.0 **** 0.06
36115 H 18.294106333256863 100.97769628659216 69.72290101406014 H 0.0 **** 0.06
36116 C 97.94259318524252 109.43179106168935 109.80054162139638 C 0.0 **** -0.24
36117 H 98.37582493474463 108.89444828032458 108.9570816756021 H 0.0 **** 0.06
36118 H 97.30376230394263 110.23487267218093 109.43117890997772 H 0.0 **** 0.06
36119 H 98.7409572494546 109.85371771910104 110.4113455543563 H 0.0 **** 0.06
36120 H 97.34939042101294 108.7433114453545 110.40294185528205 H 0.0 **** 0.06
36121 C 115.0788086509412 121.83641447319283 95.52303625108058 C 0.0 **** -0.24
36122 H 115.78953994024894 121.01426848139019 95.60533871384703 H 0.0 **** 0.06
36123 H 114.79336535828065 122.17113162689584 96.52049867097959 H 0.0 **** 0.06
36124 H 114.19222074565417 121.49805257194892 94.98545379865413 H 0.0 **** 0.06
36125 H 115.53985352477696 122.66073086476638 94.97998122885622 H 0.0 **** 0.06
36126 C 18.766953976385793 79.69267619607733 66.81529811057796 C 0.0 **** -0.24
36127 H 18.7456644607268 80.58880833625038 66.1959705754889 H 0.0 **** 0.06
36128 H 19.78700312573838 79.50585592084748 67.15020047804887 H 0.0 **** 0.06
36129 H 18.41307110355396 78.8410762631147 66.2336674646617 H 0.0 **** 0.06
36130 H 18.119849066307296 79.83480510721274 67.68145535524125 H 0.0 **** 0.06
36131 C 113.91053080782527 41.61854311910891 33.10528146094003 C 0.0 **** -0.24
36132 H 114.02496462886867 42.37972176694635 32.334715711033695 H 0.0 **** 0.06
36133 H 113.23868384561132 41.98490191462528 33.882229760817886 H 0.0 **** 0.06
36134 H 114.88369160037834 41.39430714682969 33.54203082395954 H 0.0 **** 0.06
36135 H 113.49464126694002 40.713076168187456 32.662688836851615 H 0.0 **** 0.06
36136 C 61.342631449630034 118.66783360678009 16.4706804703048 C 0.0 **** -0.24
36137 H 61.82781788877024 118.69716539180028 15.494804710080793 H 0.0 **** 0.06
36138 H 60.37175567478347 119.1605095022385 16.408162794459862 H 0.0 **** 0.06
36139 H 61.966279929597846 119.1838882124494 17.20088588187656 H 0.0 **** 0.06
36140 H 61.205649835865216 117.63104552952616 16.77731250831693 H 0.0 **** 0.06
36141 C 83.96150372849698 100.15173772132039 98.50261242027929 C 0.0 **** -0.24
36142 H 84.00133093395968 100.73055649152502 97.57996767788102 H 0.0 **** 0.06
36143 H 83.81401565834793 99.09806378964208 98.26371647454599 H 0.0 **** 0.06
36144 H 83.13301507405714 100.50431420766847 99.116242628029 H 0.0 **** 0.06
36145 H 84.89615819450253 100.27344558319521 99.04896108872663 H 0.0 **** 0.06
36146 C 86.4007572711605 101.39854350786014 9.857314570698023 C 0.0 **** -0.24
36147 H 87.33699975084969 100.85681800434665 9.9925632904489 H 0.0 **** 0.06
36148 H 86.55915423468167 102.22893382965519 9.168527902649174 H 0.0 **** 0.06
36149 H 86.06149754465815 101.7831786767509 10.819104220634827 H 0.0 **** 0.06
36150 H 85.64727504748583 100.7257469082738 9.448680330667358 H 0.0 **** 0.06
36151 C 121.20058730551175 81.72188993247656 123.34544263806339 C 0.0 **** -0.24
36152 H 121.41230459912569 80.95708041045408 122.59825866713098 H 0.0 **** 0.06
36153 H 120.39555529735378 82.3650686512227 122.98750772276692 H 0.0 **** 0.06
36154 H 122.09556202235457 82.32103795185313 123.51617537675887 H 0.0 **** 0.06
36155 H 120.89826244359689 81.24593826654775 124.27806602183092 H 0.0 **** 0.06
36156 C 42.40215950561222 0.7505972913766499 85.6927501232341 C 0.0 **** -0.24
36157 H 41.9339133826484 1.617583498587095 85.22728029179703 H 0.0 **** 0.06
36158 H 41.75229001545026 0.36576308449491535 86.47871321996857 H 0.0 **** 0.06
36159 H 43.36010858559652 1.0437863908863676 86.12400932606941 H 0.0 **** 0.06
36160 H 42.56293065175774 -0.022773636244963313 84.94186548726896 H 0.0 **** 0.06
36161 C 1.0447858411328816 104.03452976379714 47.46125492773564 C 0.0 **** -0.24
36162 H -0.013401646445919013 103.96374087950863 47.713433230088015 H 0.0 **** 0.06
36163 H 1.6344626487481886 103.51768109288992 48.21887056918513 H 0.0 **** 0.06
36164 H 1.3399604460265433 105.08334637842552 47.423699730696 H 0.0 **** 0.06
36165 H 1.218575683532066 103.57424061209633 46.48896913776855 H 0.0 **** 0.06
36166 C 32.39139045697698 88.28852206987301 27.230187259155556 C 0.0 **** -0.24
36167 H 32.144056086710236 87.42195763511461 26.616620211490826 H 0.0 **** 0.06
36168 H 33.23025121776166 88.04419950205056 27.8818411628872 H 0.0 **** 0.06
36169 H 31.527117987215917 88.56182311606153 27.835332969148027 H 0.0 **** 0.06
36170 H 32.66177303965023 89.12432163558918 26.585159328007734 H 0.0 **** 0.06
36171 C 14.143558655345775 109.58761599199305 28.069822057801787 C 0.0 **** -0.24
36172 H 13.375790043515291 110.24165946864727 28.481432455269697 H 0.0 **** 0.06
36173 H 14.34234996421386 109.86853350501222 27.034625371810165 H 0.0 **** 0.06
36174 H 13.798807433994174 108.55428161221667 28.10571568290831 H 0.0 **** 0.06
36175 H 15.057997369291837 109.68684376780615 28.65533160933731 H 0.0 **** 0.06
36176 C 73.01232438220032 72.48543779346646 32.4743000834611 C 0.0 **** -0.24
36177 H 72.7557630309569 73.4702945229834 32.0834200166407 H 0.0 **** 0.06
36178 H 73.90040562520664 72.11185597289195 31.965377701648706 H 0.0 **** 0.06
36179 H 72.18063174842266 71.80097457441222 32.306737613758315 H 0.0 **** 0.06
36180 H 73.21088103591913 72.56096421253329 33.54409857034274 H 0.0 **** 0.06
36181 C 8.564469961346049 117.5845608114835 112.8072813998397 C 0.0 **** -0.24
36182 H 7.535082452960523 117.7177601592167 113.1402453710017 H 0.0 **** 0.06
36183 H 9.216352633269935 118.25394709406709 113.36828467532027 H 0.0 **** 0.06
36184 H 8.634440419960924 117.81497920436884 111.74434340006368 H 0.0 **** 0.06
36185 H 8.870047015267232 116.55187425517903 112.97599078672607 H 0.0 **** 0.06
36186 C 68.66306040456375 38.00335741670895 100.75098382722332 C 0.0 **** -0.24
36187 H 67.5776190819774 38.053357993453545 100.66056908775884 H 0.0 **** 0.06
36188 H 68.94831905698855 38.15161839770482 101.79314646444311 H 0.0 **** 0.06
36189 H 69.11521068971976 38.78115023361815 100.13637980101016 H 0.0 **** 0.06
36190 H 69.01013295634964 37.02625202774007 100.41482699669463 H 0.0 **** 0.06
36191 C 108.65721107882942 72.61119026395161 101.2881825210689 C 0.0 **** -0.24
36192 H 108.92529512076075 72.03375931586311 102.17357125661897 H 0.0 **** 0.06
36193 H 108.15772301199607 71.96191095055099 100.56857721728022 H 0.0 **** 0.06
36194 H 109.55865485413526 73.02742564328142 100.83897220131934 H 0.0 **** 0.06
36195 H 107.98566780844246 73.42118369302642 101.57319304370753 H 0.0 **** 0.06
36196 C 56.06512375037336 50.916078381658394 45.104426551125414 C 0.0 **** -0.24
36197 H 56.98234082644966 51.390756309080246 45.451386704259505 H 0.0 **** 0.06
36198 H 55.56355424241538 50.43869803784423 45.94608190186784 H 0.0 **** 0.06
36199 H 56.30591958278325 50.166722600876426 44.350943344639205 H 0.0 **** 0.06
36200 H 55.40842863411679 51.67040117825337 44.67019344804069 H 0.0 **** 0.06
36201 C 105.50231439322496 9.925306308278948 81.72076248489637 C 0.0 **** -0.24
36202 H 105.83485887759574 10.935447228417047 81.95985701908684 H 0.0 **** 0.06
36203 H 106.32118723728611 9.225350976124162 81.88344144409804 H 0.0 **** 0.06
36204 H 105.19019442335447 9.884454650678151 80.67746197945434 H 0.0 **** 0.06
36205 H 104.66213245689435 9.65900647155712 82.3621784381103 H 0.0 **** 0.06
36206 C 18.91922162434516 42.536080647232296 93.36250351671953 C 0.0 **** -0.24
36207 H 18.391739960838255 42.78089357692667 92.43992913156842 H 0.0 **** 0.06
36208 H 19.952654947047044 42.874950823922916 93.29023820982133 H 0.0 **** 0.06
36209 H 18.899291092565676 41.45639553418715 93.51523730346986 H 0.0 **** 0.06
36210 H 18.43077002162892 43.0310389968397 94.20196285433553 H 0.0 **** 0.06
36211 C 62.15394727529697 102.7787358035026 52.25079262080237 C 0.0 **** -0.24
36212 H 62.71464868348045 102.6348224798098 51.327106200285435 H 0.0 **** 0.06
36213 H 62.34044375960741 101.94111780285405 52.92352577673981 H 0.0 **** 0.06
36214 H 61.08866478698749 102.83272174127916 52.02411994854836 H 0.0 **** 0.06
36215 H 62.47125880468745 103.70590975494389 52.72790430295635 H 0.0 **** 0.06
36216 C 103.55231781626489 98.93489875469233 72.21373648244041 C 0.0 **** -0.24
36217 H 103.89715568625633 99.28538050353573 71.24171692904505 H 0.0 **** 0.06
36218 H 102.89682478749029 98.07399428464376 72.07729176205514 H 0.0 **** 0.06
36219 H 103.00377391321922 99.73322443025019 72.71398884806348 H 0.0 **** 0.06
36220 H 104.4099414652776 98.6465012310885 72.82247149344224 H 0.0 **** 0.06
36221 C 54.86645574645431 11.049018294751761 1.5851470180998888 C 0.0 **** -0.24
36222 H 55.76043701910422 10.429346494476931 1.6540240275747067 H 0.0 **** 0.06
36223 H 54.578384045557016 11.381652162568628 2.5830033098395404 H 0.0 **** 0.06
36224 H 54.05492109001118 10.468351957378161 1.1477733139572166 H 0.0 **** 0.06
36225 H 55.073376544712175 11.915885798318982 0.9583606352020411 H 0.0 **** 0.06
36226 C 1.9087544184609726 97.85245098992016 95.34200094627226 C 0.0 **** -0.24
36227 H 0.9110889485299509 97.9062387957137 94.90593305676884 H 0.0 **** 0.06
36228 H 1.8764478431181573 97.24439399353668 96.24699142777627 H 0.0 **** 0.06
36229 H 2.250533212312604 98.8568677405238 95.590906406957 H 0.0 **** 0.06
36230 H 2.5942225627824627 97.40147241839531 94.6251129434649 H 0.0 **** 0.06
36231 C 22.53215486807423 97.3273878227925 71.98054606649055 C 0.0 **** -0.24
36232 H 21.892118114747518 96.48987328507015 72.2582078470453 H 0.0 **** 0.06
36233 H 23.106789925904337 97.64780728283604 72.84946413843738 H 0.0 **** 0.06
36234 H 21.916236825387074 98.15370810342151 71.62639152696141 H 0.0 **** 0.06
36235 H 23.212825135995956 97.01602452637769 71.188037010855 H 0.0 **** 0.06
36236 C 35.5530487960294 111.11780324543437 119.98790940950508 C 0.0 **** -0.24
36237 H 35.944336976415975 110.55430265361413 120.83487183113945 H 0.0 **** 0.06
36238 H 36.162235543747734 110.91688492271034 119.10648382764282 H 0.0 **** 0.06
36239 H 35.58338285157118 112.18352310405555 120.21503656295874 H 0.0 **** 0.06
36240 H 34.52378568202178 110.81589845722986 119.79574121886064 H 0.0 **** 0.06
36241 C 41.33687374867401 7.380502581946487 48.190903749530975 C 0.0 **** -0.24
36242 H 42.2759357567262 7.075959920398077 48.65315587541185 H 0.0 **** 0.06
36243 H 40.88465696214121 6.523456969506597 47.690160708941555 H 0.0 **** 0.06
36244 H 41.53050209821038 8.167450360816702 47.462139075204 H 0.0 **** 0.06
36245 H 40.658434464238766 7.753778544029188 48.95816635873611 H 0.0 **** 0.06
36246 C 38.69848719942868 110.04549056013235 24.23882080083237 C 0.0 **** -0.24
36247 H 38.63365999473943 109.41702166456105 23.350580410920266 H 0.0 **** 0.06
36248 H 39.42801387667474 109.62353432151792 24.930545096390595 H 0.0 **** 0.06
36249 H 37.72323718585082 110.09210558803758 24.722652505504755 H 0.0 **** 0.06
36250 H 39.00923845576676 111.05009933552944 23.950937832930784 H 0.0 **** 0.06
36251 C 103.00085465284917 120.4295509151197 89.64744369099346 C 0.0 **** -0.24
36252 H 103.91611830052807 120.17323996566611 89.11267184412812 H 0.0 **** 0.06
36253 H 102.1385356972732 120.09458989643349 89.07104119434581 H 0.0 **** 0.06
36254 H 102.95074747273696 121.50994567619568 89.78235896245783 H 0.0 **** 0.06
36255 H 102.99984467314457 119.94041505515091 90.62059460408477 H 0.0 **** 0.06
36256 C 82.04798422575766 6.120826738820455 74.13170762548796 C 0.0 **** -0.24
36257 H 81.72122558277296 5.288111281059656 73.50886939343135 H 0.0 **** 0.06
36258 H 83.11548482342917 6.286766648407919 73.98552914995724 H 0.0 **** 0.06
36259 H 81.85723197399278 5.8868367488028355 75.17959646950086 H 0.0 **** 0.06
36260 H 81.49821309836831 7.020281044632668 73.8548929671617 H 0.0 **** 0.06
36261 C 68.77344443736128 86.33845474424093 93.87409137231407 C 0.0 **** -0.24
36262 H 68.22546355139251 87.2730602668969 93.76236369641077 H 0.0 **** 0.06
36263 H 68.49300089300634 85.86187511132529 94.81349170597454 H 0.0 **** 0.06
36264 H 69.84403252496777 86.54309997486197 93.87556785929834 H 0.0 **** 0.06
36265 H 68.53207533048183 85.67428838455683 93.0431721228392 H 0.0 **** 0.06
36266 C 11.184708465379856 47.20374876225992 27.361949823742528 C 0.0 **** -0.24
36267 H 10.223046640158174 47.094561894225876 26.859393825023403 H 0.0 **** 0.06
36268 H 11.092784114266237 47.92895910749337 28.170026884770373 H 0.0 **** 0.06
36269 H 11.930443681039236 47.549375974348436 26.646334352238853 H 0.0 **** 0.06
36270 H 11.492192411925572 46.24035959297953 27.77068656727063 H 0.0 **** 0.06
36271 C 20.776232777416737 42.34321282476289 4.94701475928602 C 0.0 **** -0.24
36272 H 21.50264282813572 43.01989462582219 5.3956614113785974 H 0.0 **** 0.06
36273 H 20.44076462625813 42.75082897779227 3.993158941366403 H 0.0 **** 0.06
36274 H 19.921962334872887 42.232855186395035 5.615272144100771 H 0.0 **** 0.06
36275 H 21.238719633240265 41.37033411242412 4.784372333633371 H 0.0 **** 0.06
36276 C 50.64171396818304 121.28915729638113 68.67145136327917 C 0.0 **** -0.24
36277 H 50.51931831416252 120.2541762439743 68.99463763599493 H 0.0 **** 0.06
36278 H 51.69787550671549 121.5561522990401 68.70266290900719 H 0.0 **** 0.06
36279 H 50.080170307603964 121.94472530381789 69.33729896655672 H 0.0 **** 0.06
36280 H 50.26871719827271 121.39830737682534 67.65285556408963 H 0.0 **** 0.06
36281 C 57.2070217136133 2.2569988643758023 27.86753601164824 C 0.0 **** -0.24
36282 H 57.408641476763364 1.6833224482968205 28.772706493211842 H 0.0 **** 0.06
36283 H 57.4646274521469 1.6572787354048018 26.994344865274286 H 0.0 **** 0.06
36284 H 57.80486502637406 3.1681190321396144 27.87362641933484 H 0.0 **** 0.06
36285 H 56.1486216111703 2.5170139468659016 27.831939104233328 H 0.0 **** 0.06
36286 C 39.805872776391624 105.57599467949342 70.79580780383412 C 0.0 **** -0.24
36287 H 39.981068386600576 106.55655077415423 71.23927368787596 H 0.0 **** 0.06
36288 H 40.014785843327566 105.6188937897233 69.72674058458443 H 0.0 **** 0.06
36289 H 38.76669109276738 105.2873688143921 70.95267153381047 H 0.0 **** 0.06
36290 H 40.46142709021689 104.84300782688518 71.26515679987475 H 0.0 **** 0.06
36291 C 49.82395024942349 65.34899585871567 88.95570065977398 C 0.0 **** -0.24
36292 H 50.40546583650095 64.58116444908042 88.4456229746846 H 0.0 **** 0.06
36293 H 48.761375792620925 65.15468729223299 88.8136043779125 H 0.0 **** 0.06
36294 H 50.07430807520532 66.32719953177384 88.54302362552477 H 0.0 **** 0.06
36295 H 50.05819577104924 65.33411997757823 90.02071451768705 H 0.0 **** 0.06
36296 C 1.917921253920241 81.11460104257642 10.757409199883512 C 0.0 **** -0.24
36297 H 1.0347877683140894 81.17595419731089 11.393853053479134 H 0.0 **** 0.06
36298 H 2.0004729196735127 80.10700562622029 10.347831980777869 H 0.0 **** 0.06
36299 H 2.8070122274089755 81.34295667987404 11.34508142543801 H 0.0 **** 0.06
36300 H 1.827109185164204 81.83235513055904 9.942046120322914 H 0.0 **** 0.06
36301 C 16.737861706924264 58.0531731291851 69.65793148840187 C 0.0 **** -0.24
36302 H 17.472510295239232 58.85515181863471 69.72385791219337 H 0.0 **** 0.06
36303 H 16.29226380999785 57.88669099802428 70.63923367512396 H 0.0 **** 0.06
36304 H 17.226157338778734 57.138225563584314 69.3208200908782 H 0.0 **** 0.06
36305 H 15.959234693520642 58.33096152483776 68.94704237949776 H 0.0 **** 0.06
36306 C 32.46408421537109 113.40959982462411 71.88567231754215 C 0.0 **** -0.24
36307 H 32.606885901397895 113.84940337254281 72.87309029535753 H 0.0 **** 0.06
36308 H 33.01377062812365 113.99228257630179 71.14595993720998 H 0.0 **** 0.06
36309 H 31.403011159274328 113.41379241695827 71.63587217919661 H 0.0 **** 0.06
36310 H 32.83285113663432 112.38452364968421 71.88839800675643 H 0.0 **** 0.06
36311 C 3.47350791749399 44.88761428344492 76.17717449686413 C 0.0 **** -0.24
36312 H 3.9854228559533738 44.39163059501823 77.00289604714087 H 0.0 **** 0.06
36313 H 3.789745534665599 45.92943157461127 76.12787750692345 H 0.0 **** 0.06
36314 H 2.3966450428335975 44.8416243768321 76.33794749713084 H 0.0 **** 0.06
36315 H 3.7231003140520613 44.38657227678493 75.24238243414968 H 0.0 **** 0.06
36316 C 29.311528263718962 17.896114386561855 67.28828347286424 C 0.0 **** -0.24
36317 H 29.025039066352747 18.87212408017914 67.68064396074946 H 0.0 **** 0.06
36318 H 30.23341330695134 17.56773943470418 67.76927995565221 H 0.0 **** 0.06
36319 H 29.469282023302654 17.970729749699945 66.21217937714556 H 0.0 **** 0.06
36320 H 28.519446472097826 17.17580014446541 67.49136597375994 H 0.0 **** 0.06
36321 C 6.040485757256626 93.06684955052617 20.04913814833168 C 0.0 **** -0.24
36322 H 5.532500739072805 93.23358319733501 19.099075603561346 H 0.0 **** 0.06
36323 H 6.320547240005077 92.0158999359586 20.131231172251205 H 0.0 **** 0.06
36324 H 5.372847301667015 93.33011814324578 20.86912974104831 H 0.0 **** 0.06
36325 H 6.935769481930674 93.68641933355144 20.095376801847294 H 0.0 **** 0.06
36326 C 74.05911330862321 0.44904734474442876 72.72560582709285 C 0.0 **** -0.24
36327 H 74.70191311580264 1.2931772356341469 72.47682717579566 H 0.0 **** 0.06
36328 H 73.97982149518857 -0.21250875291838156 71.86246152217628 H 0.0 **** 0.06
36329 H 73.06852658677633 0.8148402365685001 72.99597449622732 H 0.0 **** 0.06
36330 H 74.48656176617018 -0.09799223753128672 73.56539876057907 H 0.0 **** 0.06
36331 C 112.95370910496035 112.62279937542012 74.78547941995495 C 0.0 **** -0.24
36332 H 113.3982701371736 111.83232920731706 75.39045638563593 H 0.0 **** 0.06
36333 H 112.00766687372834 112.27281789357829 74.37152555084954 H 0.0 **** 0.06
36334 H 113.63238589251472 112.88423504916913 73.9737024157905 H 0.0 **** 0.06
36335 H 112.77572078867644 113.49994376202712 75.4076004620909 H 0.0 **** 0.06
36336 C 111.0173755115413 72.91003746267714 14.377878515750496 C 0.0 **** -0.24
36337 H 111.71508919379835 73.63185448148354 14.803347146771301 H 0.0 **** 0.06
36338 H 110.2112580594684 73.43972027608082 13.870362535541489 H 0.0 **** 0.06
36339 H 110.60113722784112 72.2938999161694 15.175907969683976 H 0.0 **** 0.06
36340 H 111.54196986761886 72.27413977645135 13.664847945156708 H 0.0 **** 0.06
36341 C 96.3779621426891 31.65809579365157 30.065484093429582 C 0.0 **** -0.24
36342 H 96.90451482638812 30.906271088573135 29.478188976596172 H 0.0 **** 0.06
36343 H 97.01801856084597 31.994533811374225 30.881995591631103 H 0.0 **** 0.06
36344 H 95.46408818911668 31.226604473396094 30.473109304565618 H 0.0 **** 0.06
36345 H 96.1264093356477 32.50650694069094 29.42752365294652 H 0.0 **** 0.06
36346 C 110.201429341681 19.37322105649116 65.89295062126317 C 0.0 **** -0.24
36347 H 110.98537137919212 18.66418991297155 66.15891945873918 H 0.0 **** 0.06
36348 H 110.59198621559466 20.094766333612938 65.17570071924419 H 0.0 **** 0.06
36349 H 109.8660047831539 19.89543304719774 66.78878413790508 H 0.0 **** 0.06
36350 H 109.36182284077088 18.83740830959016 65.44913041030074 H 0.0 **** 0.06
36351 C 85.47708517505545 32.700391092369586 20.273455947487577 C 0.0 **** -0.24
36352 H 85.60152607276893 33.41811816728989 21.08345282491672 H 0.0 **** 0.06
36353 H 85.29348994867846 33.233277032989946 19.34048055926752 H 0.0 **** 0.06
36354 H 84.63089264682135 32.04820323736291 20.49319214914391 H 0.0 **** 0.06
36355 H 86.38279853387472 32.10080878319937 20.177424060054733 H 0.0 **** 0.06
36356 C 90.00777386827068 48.16846337347084 12.736815479057718 C 0.0 **** -0.24
36357 H 90.99416228807561 48.63021775925918 12.687943150540953 H 0.0 **** 0.06
36358 H 89.25005668509694 48.90036042138942 12.456829597438357 H 0.0 **** 0.06
36359 H 89.82059118423479 47.82053525952881 13.752871282940148 H 0.0 **** 0.06
36360 H 89.96868516609253 47.322551853585566 12.050071339203487 H 0.0 **** 0.06
36361 C 60.37047885344677 76.62513452729745 39.3348515750185 C 0.0 **** -0.24
36362 H 61.36842350715682 76.9350657633239 39.6451060025946 H 0.0 **** 0.06
36363 H 59.79910113041882 77.50008583994308 39.02440444490297 H 0.0 **** 0.06
36364 H 59.86503581718105 76.13848008485522 40.169548254782484 H 0.0 **** 0.06
36365 H 60.44942135267959 75.92727689357498 38.50171084731331 H 0.0 **** 0.06
36366 C 9.082610302215897 63.30259304652341 103.86484791060587 C 0.0 **** -0.24
36367 H 8.576589390255862 62.58230028628411 103.22296878013623 H 0.0 **** 0.06
36368 H 10.160178746614832 63.13956403422746 103.81497197065312 H 0.0 **** 0.06
36369 H 8.743227792992826 63.17557537325129 104.89253643131718 H 0.0 **** 0.06
36370 H 8.852135361945585 64.3136290737624 103.52810291337374 H 0.0 **** 0.06
36371 C 21.99975696422115 56.15074714509396 80.11527322130505 C 0.0 **** -0.24
36372 H 21.684856171471154 57.043856112331895 79.57613359474247 H 0.0 **** 0.06
36373 H 21.18127252024908 55.797806495059746 80.74407359867217 H 0.0 **** 0.06
36374 H 22.861410000338083 56.389802240316925 80.73968693675367 H 0.0 **** 0.06
36375 H 22.272923862359676 55.37311980952748 79.40237964598086 H 0.0 **** 0.06
36376 C 62.465551202838725 67.41880176279207 16.685482156094906 C 0.0 **** -0.24
36377 H 62.32363970633969 68.00664285395065 17.591984583226065 H 0.0 **** 0.06
36378 H 63.339949883540854 67.78567414509413 16.147523668565583 H 0.0 **** 0.06
36379 H 61.5837658766567 67.51100337213893 16.051744682353558 H 0.0 **** 0.06
36380 H 62.614849344817884 66.37188667998444 16.95067569023456 H 0.0 **** 0.06
36381 C 11.785558202056237 116.24680855344364 77.99197185597188 C 0.0 **** -0.24
36382 H 12.58718387527895 116.1031515718533 78.71591634118784 H 0.0 **** 0.06
36383 H 11.898405365766063 117.22036430346787 77.51327308654879 H 0.0 **** 0.06
36384 H 10.82264951974113 116.2011474051114 78.50192744432468 H 0.0 **** 0.06
36385 H 11.833994047438797 115.46257093334191 77.23677055182628 H 0.0 **** 0.06
36386 C 11.981075813166282 76.28654819060769 48.792068368129264 C 0.0 **** -0.24
36387 H 12.725648060870842 75.49141169405208 48.76770077204009 H 0.0 **** 0.06
36388 H 12.424771686265299 77.18598670887114 49.2209344558234 H 0.0 **** 0.06
36389 H 11.133771637092831 75.97374652109185 49.40263898703046 H 0.0 **** 0.06
36390 H 11.640854589769333 76.4969424523104 47.77792611863174 H 0.0 **** 0.06
36391 C 26.64862140068748 47.689909596268954 110.01541485508082 C 0.0 **** -0.24
36392 H 27.503245833905154 47.69258140881877 110.69190775444574 H 0.0 **** 0.06
36393 H 27.003043159611437 47.65119736231976 108.98437635104446 H 0.0 **** 0.06
36394 H 26.06428440869771 48.59735384082134 110.16508077340845 H 0.0 **** 0.06
36395 H 26.026830326103905 46.81816765963523 110.21968568589463 H 0.0 **** 0.06
36396 C 25.547632254846803 71.15962280391113 24.05431813454865 C 0.0 **** -0.24
36397 H 26.416818895818096 70.7793662224654 23.51582734811862 H 0.0 **** 0.06
36398 H 24.752206164794927 70.41498836776145 24.030853713457816 H 0.0 **** 0.06
36399 H 25.200513138294582 72.07816183213026 23.580327500746336 H 0.0 **** 0.06
36400 H 25.822226581486234 71.36549987636567 25.088461861344314 H 0.0 **** 0.06
36401 C 48.8561897998226 58.9822058082017 22.677672491435686 C 0.0 **** -0.24
36402 H 48.6210665784302 59.90981512997975 23.198794052560203 H 0.0 **** 0.06
36403 H 49.913945089965324 58.97399193467062 22.40976929241245 H 0.0 **** 0.06
36404 H 48.25173082233991 58.90955051098673 21.77324267748436 H 0.0 **** 0.06
36405 H 48.64010507945403 58.13506191113319 23.328194041666663 H 0.0 **** 0.06
36406 C 116.88708585138957 82.55976084249369 38.785237275862755 C 0.0 **** -0.24
36407 H 117.97496096027392 82.50715312691548 38.740865116854025 H 0.0 **** 0.06
36408 H 116.51337340512138 83.08126812082338 37.90444624683107 H 0.0 **** 0.06
36409 H 116.5866047512812 83.0984487814045 39.683911921845606 H 0.0 **** 0.06
36410 H 116.47590945286233 81.55069043066914 38.812450809984284 H 0.0 **** 0.06
36411 C 40.672629394431894 102.78476630823309 59.18141795295678 C 0.0 **** -0.24
36412 H 40.86454387233519 102.11808780636011 60.02244074850469 H 0.0 **** 0.06
36413 H 40.7976835963978 103.81871797892165 59.50341812551905 H 0.0 **** 0.06
36414 H 39.65435999766231 102.63459136368465 58.825182730690855 H 0.0 **** 0.06
36415 H 41.37532170579043 102.5665921721145 58.37744205142056 H 0.0 **** 0.06
36416 C 80.52345443588828 107.89904896894295 71.29012851075481 C 0.0 **** -0.24
36417 H 80.46246508127749 108.79256493449022 70.67019130878055 H 0.0 **** 0.06
36418 H 80.31083525582937 107.02006467700623 70.68180754806076 H 0.0 **** 0.06
36419 H 79.79419576407642 107.96701543396722 72.09746243354937 H 0.0 **** 0.06
36420 H 81.52510404468836 107.8158332837126 71.71110461800833 H 0.0 **** 0.06
36421 C 17.857423154410125 37.803170544230625 106.88390291980217 C 0.0 **** -0.24
36422 H 18.15798999696934 37.75399340246537 107.93012701064599 H 0.0 **** 0.06
36423 H 16.868390475120176 37.35724602015284 106.76796969592526 H 0.0 **** 0.06
36424 H 18.576211900941694 37.25587357645975 106.2736017615012 H 0.0 **** 0.06
36425 H 17.82633708535502 38.844726546678544 106.5630719811334 H 0.0 **** 0.06
36426 C 8.668896334537067 51.68378783508905 63.54423459373271 C 0.0 **** -0.24
36427 H 9.631721813887253 51.44381095685853 63.99679616156914 H 0.0 **** 0.06
36428 H 8.815841460485984 52.411620498386526 62.74618042403864 H 0.0 **** 0.06
36429 H 8.005862553492051 52.10237498606273 64.30158307729988 H 0.0 **** 0.06
36430 H 8.225634834571736 50.77782156265732 63.133212744397355 H 0.0 **** 0.06
36431 C 29.04259350357863 102.78541829109344 9.25072789018003 C 0.0 **** -0.24
36432 H 28.97011971344999 103.77736526848528 9.696938000146247 H 0.0 **** 0.06
36433 H 29.57584201623075 102.85257555306092 8.30196834130436 H 0.0 **** 0.06
36434 H 28.041079667536962 102.39118214998902 9.077942997079674 H 0.0 **** 0.06
36435 H 29.583122399119418 102.1216405627687 9.925186431653003 H 0.0 **** 0.06
36436 C 32.63249452507799 118.22438487848663 100.30721000152477 C 0.0 **** -0.24
36437 H 31.91704400897021 117.65780830216727 100.90368236384207 H 0.0 **** 0.06
36438 H 32.22032174591186 118.39397120346867 99.31244179168341 H 0.0 **** 0.06
36439 H 33.56258696030818 117.66151462976521 100.22496109891861 H 0.0 **** 0.06
36440 H 32.828439271567134 119.1828260246152 100.78896718720212 H 0.0 **** 0.06
36441 C 6.432425067722619 63.1084480473764 7.366128945187597 C 0.0 **** -0.24
36442 H 7.2966035984249515 63.773426526431436 7.3738650887891595 H 0.0 **** 0.06
36443 H 5.527378815214462 63.691615728962674 7.197358627269864 H 0.0 **** 0.06
36444 H 6.361734126548043 62.5945944025369 8.324230124869132 H 0.0 **** 0.06
36445 H 6.5469875692257915 62.37476208919939 6.568281184922171 H 0.0 **** 0.06
36446 C 121.97320056437901 71.97290628590049 38.87110694370299 C 0.0 **** -0.24
36447 H 121.26084540713956 71.16211286857782 39.02646433187302 H 0.0 **** 0.06
36448 H 122.55580921356801 71.77687683270166 37.97093511230574 H 0.0 **** 0.06
36449 H 122.64041148916479 72.03985372486959 39.73066342823089 H 0.0 **** 0.06
36450 H 121.43273890335533 72.91277769280558 38.75623454484932 H 0.0 **** 0.06
36451 C 11.979726263008786 70.06162427366895 2.083847539257775 C 0.0 **** -0.24
36452 H 11.135272416496264 70.54910027558142 2.570831670696805 H 0.0 **** 0.06
36453 H 11.664272299254776 69.09218511753296 1.6964752442847555 H 0.0 **** 0.06
36454 H 12.783812169226337 69.92033807731185 2.8057926567953473 H 0.0 **** 0.06
36455 H 12.333259299677309 70.6841935973929 1.2617438025450838 H 0.0 **** 0.06
36456 C 43.55749916757628 50.74045671482901 109.29748035233786 C 0.0 **** -0.24
36457 H 44.083229415119746 50.06460823776692 108.6222609045962 H 0.0 **** 0.06
36458 H 43.20600931601594 51.608731711708856 108.73994458549322 H 0.0 **** 0.06
36459 H 44.2364895469766 51.06450048768838 110.08673408255788 H 0.0 **** 0.06
36460 H 42.70680943351792 50.22263700733947 109.7385895701263 H 0.0 **** 0.06
36461 C 42.64209245179788 45.4217963619993 71.85291754215838 C 0.0 **** -0.24
36462 H 43.16953461151067 45.30215634834619 72.79970621238733 H 0.0 **** 0.06
36463 H 41.86526265311309 44.66149800208328 71.77217987235773 H 0.0 **** 0.06
36464 H 43.346714859813915 45.31274457349781 71.02848884618199 H 0.0 **** 0.06
36465 H 42.18777370914091 46.412178768273236 71.81398281802619 H 0.0 **** 0.06
36466 C 95.75229394344224 68.35549077641406 8.520960519402479 C 0.0 **** -0.24
36467 H 96.13316794097341 69.11359663161869 7.836703833862998 H 0.0 **** 0.06
36468 H 96.5648665324875 67.99547681002423 9.153524778210283 H 0.0 **** 0.06
36469 H 95.34154898154846 67.5236539800731 7.948822579381613 H 0.0 **** 0.06
36470 H 94.97041167542889 68.78808312957113 9.144810388000565 H 0.0 **** 0.06
36471 C 64.37190161954436 90.37167335526908 95.16046213948277 C 0.0 **** -0.24
36472 H 63.83827184977403 90.07865238016223 96.06423901915005 H 0.0 **** 0.06
36473 H 64.00101527380377 91.33863113357177 94.81723218417346 H 0.0 **** 0.06
36474 H 64.2093555808196 89.6237927018584 94.3835000483289 H 0.0 **** 0.06
36475 H 65.4373289514626 90.4463302246661 95.37519823469606 H 0.0 **** 0.06
36476 C 18.50960153631513 79.36634450034349 74.19131838953709 C 0.0 **** -0.24
36477 H 18.307215759925384 80.4353263938674 74.25258322566893 H 0.0 **** 0.06
36478 H 17.846895724502986 78.831099235587 74.87170890032499 H 0.0 **** 0.06
36479 H 19.546173666363813 79.17633737416196 74.46955967497928 H 0.0 **** 0.06
36480 H 18.33795537305059 79.0217055321944 73.17104031837366 H 0.0 **** 0.06
36481 C 37.99379110902373 87.90406679403111 90.88674451194952 C 0.0 **** -0.24
36482 H 39.0596123429703 87.72879965998641 91.02883663243763 H 0.0 **** 0.06
36483 H 37.58756037466179 87.15044436645974 90.21213163585496 H 0.0 **** 0.06
36484 H 37.842244713254786 88.89467815003616 90.45923137574277 H 0.0 **** 0.06
36485 H 37.48500728097184 87.84222152420648 91.84968323499427 H 0.0 **** 0.06
36486 C 62.308543193312005 6.066830729874539 94.4331013246794 C 0.0 **** -0.24
36487 H 62.848121541509954 5.551570695857237 93.63894015141 H 0.0 **** 0.06
36488 H 62.49106575168764 7.139238186292175 94.3580179122655 H 0.0 **** 0.06
36489 H 62.656213653075326 5.706119673238163 95.40066137012393 H 0.0 **** 0.06
36490 H 61.24093235152162 5.872011650378056 94.33347552090817 H 0.0 **** 0.06
36491 C 44.307406128604335 67.8143585407986 57.28873311550963 C 0.0 **** -0.24
36492 H 44.932696610825374 68.1710761725061 56.4703584799167 H 0.0 **** 0.06
36493 H 43.25919293663478 68.0055691080602 57.055629247707174 H 0.0 **** 0.06
36494 H 44.57696056455912 68.33570656778946 58.206289792328235 H 0.0 **** 0.06
36495 H 44.460329140020406 66.74269530652813 57.42089300696985 H 0.0 **** 0.06
36496 C 2.612789906392379 81.84993647757378 39.62391697751428 C 0.0 **** -0.24
36497 H 1.6835149332877108 82.31719007785078 39.95106502874171 H 0.0 **** 0.06
36498 H 3.3096393943562816 81.80450706053315 40.461405315972215 H 0.0 **** 0.06
36499 H 3.0506405440842173 82.43833370297811 38.81793236172787 H 0.0 **** 0.06
36500 H 2.406641171584994 80.84114451468554 39.26780165707887 H 0.0 **** 0.06
36501 C 73.04059812486898 29.05949140595311 75.1476112285096 C 0.0 **** -0.24
36502 H 72.82027920333104 29.169819405403032 76.20905787048767 H 0.0 **** 0.06
36503 H 73.42346576013523 28.056775994844784 74.95899824287 H 0.0 **** 0.06
36504 H 73.78775895250666 29.796048942477185 74.85342360512912 H 0.0 **** 0.06
36505 H 72.1294755863589 29.215364025593033 74.56892373200988 H 0.0 **** 0.06
36506 C 94.18401690539508 79.554332699341 78.183253040069 C 0.0 **** -0.24
36507 H 94.00889839409484 79.22969098059265 79.20905320600407 H 0.0 **** 0.06
36508 H 93.61352516347984 78.92484257590043 77.50051513251572 H 0.0 **** 0.06
36509 H 95.24626401132352 79.47036892233265 77.95305987437497 H 0.0 **** 0.06
36510 H 93.86895405081714 80.59161561303655 78.07174861135333 H 0.0 **** 0.06
36511 C 73.4142338070486 14.614418254775245 22.624790276785887 C 0.0 **** -0.24
36512 H 74.45685633369247 14.34881438683118 22.801707213399 H 0.0 **** 0.06
36513 H 73.11173907151952 15.387606324492879 23.330281448916764 H 0.0 **** 0.06
36514 H 72.78716203604132 13.733113736145413 22.760871371471325 H 0.0 **** 0.06
36515 H 73.30171187740599 14.986011528200436 21.606737767453666 H 0.0 **** 0.06
36516 C 22.85196046557732 3.925154041220548 14.57956503789751 C 0.0 **** -0.24
36517 H 23.702839246903267 4.59537030925539 14.452847944703109 H 0.0 **** 0.06
36518 H 23.128434401629164 2.9222156839189335 14.25527120763698 H 0.0 **** 0.06
36519 H 22.01572050538519 4.284613973181489 13.980326382448112 H 0.0 **** 0.06
36520 H 22.562034250146638 3.9013459829366717 15.62990958107008 H 0.0 **** 0.06
36521 C 98.50739970950558 89.74045425956834 27.830875966581885 C 0.0 **** -0.24
36522 H 97.78587269406951 89.65322811006428 28.642813794905436 H 0.0 **** 0.06
36523 H 99.19000536850433 88.89042824605049 27.85956503903406 H 0.0 **** 0.06
36524 H 99.07333842741197 90.6642590869473 27.9459005414599 H 0.0 **** 0.06
36525 H 97.9803219911439 89.75209963837919 26.876882691869383 H 0.0 **** 0.06
36526 C 73.7334808759714 61.506576982310065 73.23981272836892 C 0.0 **** -0.24
36527 H 73.14117940219602 61.02838007838059 74.01956997314736 H 0.0 **** 0.06
36528 H 74.56812069144799 60.859776369813005 72.97085360347259 H 0.0 **** 0.06
36529 H 74.11401663020163 62.459500039522965 73.60620437780463 H 0.0 **** 0.06
36530 H 73.10857692692805 61.678449686062024 72.36353906995939 H 0.0 **** 0.06
36531 C 116.43176006039238 17.123704103868135 12.275158241151956 C 0.0 **** -0.24
36532 H 117.36561414136148 17.60841355626144 12.560790936489752 H 0.0 **** 0.06
36533 H 116.01373964330472 16.60489753046565 13.138673994080477 H 0.0 **** 0.06
36534 H 116.62441716263112 16.406236581234822 11.478062728921032 H 0.0 **** 0.06
36535 H 115.72494797989765 17.875159290703465 11.925589357529958 H 0.0 **** 0.06
36536 C 83.38061267649243 66.01756848662234 29.206659959719886 C 0.0 **** -0.24
36537 H 82.32781514675986 65.88266298391798 29.454975447187337 H 0.0 **** 0.06
36538 H 83.53701737658076 67.02520400198416 28.822325583187407 H 0.0 **** 0.06
36539 H 83.67031009038948 65.29021543776426 28.448352863555073 H 0.0 **** 0.06
36540 H 83.98553233676245 65.870507314948 30.1010882096125 H 0.0 **** 0.06
36541 C 96.3297508447187 89.03679993154137 43.383423414594574 C 0.0 **** -0.24
36542 H 96.07011961743343 89.42503804977895 42.39943438842451 H 0.0 **** 0.06
36543 H 97.4011051356279 89.1542844934012 43.549453909738986 H 0.0 **** 0.06
36544 H 96.06664330654304 87.98034230460794 43.438236052396775 H 0.0 **** 0.06
36545 H 95.78164320136257 89.58742076694799 44.14788427611026 H 0.0 **** 0.06
36546 C 22.014626799381347 95.46269282568588 66.4089222690759 C 0.0 **** -0.24
36547 H 21.258959958443285 95.18575199875426 67.14409307673532 H 0.0 **** 0.06
36548 H 22.100252924304698 96.54937380068296 66.36805140449104 H 0.0 **** 0.06
36549 H 21.725381128772312 95.08360035402646 65.42934200930944 H 0.0 **** 0.06
36550 H 22.97492062053456 95.03349116360889 66.69590389114035 H 0.0 **** 0.06
36551 C 115.12525316645488 59.22999311143394 84.50691329250239 C 0.0 **** -0.24
36552 H 115.46729854709677 58.23465953037402 84.79148447377705 H 0.0 **** 0.06
36553 H 115.27687584651402 59.37438412884313 83.4366929584476 H 0.0 **** 0.06
36554 H 115.6917180613126 59.97974281198168 85.05882142803344 H 0.0 **** 0.06
36555 H 114.06573727845134 59.330399030914066 84.74065331450319 H 0.0 **** 0.06
36556 C 71.6811820552503 49.12981221153162 79.06915853525916 C 0.0 **** -0.24
36557 H 70.59502647795432 49.08223225867198 79.1437768190673 H 0.0 **** 0.06
36558 H 72.09844986310458 48.13185900959285 79.20868188357203 H 0.0 **** 0.06
36559 H 72.06914643260978 49.79698765965564 79.8386968745946 H 0.0 **** 0.06
36560 H 71.96147153990626 49.5072867765969 78.08638317947872 H 0.0 **** 0.06
36561 C 69.93166358621762 90.92088843788338 35.13014471773781 C 0.0 **** -0.24
36562 H 70.46089785833894 90.16558694024285 35.71042344086953 H 0.0 **** 0.06
36563 H 70.16218819839294 90.79356742435392 34.072081624235125 H 0.0 **** 0.06
36564 H 70.2462398619602 91.91336735133106 35.45300859948084 H 0.0 **** 0.06
36565 H 68.85863265735408 90.81144524654465 35.285423459080235 H 0.0 **** 0.06
36566 C 6.706617240258822 36.27832049165792 5.724022111370214 C 0.0 **** -0.24
36567 H 5.69956494750798 36.254988019455396 5.308072641394816 H 0.0 **** 0.06
36568 H 7.427839562469217 36.04013846924349 4.941703482698792 H 0.0 **** 0.06
36569 H 6.785034899825405 35.546500354297194 6.527328158742126 H 0.0 **** 0.06
36570 H 6.913253532896761 37.273962177146444 6.1187091692220115 H 0.0 **** 0.06
36571 C 0.5166316932414361 54.24691326885174 86.19302701687256 C 0.0 **** -0.24
36572 H 0.5996412687546808 54.839096672583324 87.1053389313815 H 0.0 **** 0.06
36573 H 1.071620162282784 54.73599027124358 85.39122573300789 H 0.0 **** 0.06
36574 H -0.5327470147216502 54.16125563414505 85.91036852778933 H 0.0 **** 0.06
36575 H 0.9292890940962764 53.253186801395856 86.36713699344105 H 0.0 **** 0.06
36576 C 22.720695198852013 6.278931294228215 62.893674506707015 C 0.0 **** -0.24
36577 H 21.74619263924822 6.661746241355274 63.196174363787875 H 0.0 **** 0.06
36578 H 22.58730602331306 5.3708576351575985 62.30471837364293 H 0.0 **** 0.06
36579 H 23.31294943260437 6.053647100243413 63.780687287180385 H 0.0 **** 0.06
36580 H 23.235384877233827 7.0291580443538315 62.293076400814826 H 0.0 **** 0.06
36581 C 44.84233446783912 32.5082155927836 53.93647115781704 C 0.0 **** -0.24
36582 H 45.622735398889716 32.427329655170894 53.179643190170566 H 0.0 **** 0.06
36583 H 45.29973679052239 32.612804363118244 54.91961353688015 H 0.0 **** 0.06
36584 H 44.223100820983746 31.611881409681445 53.9163867070655 H 0.0 **** 0.06
36585 H 44.22347071353485 33.3814327741005 53.728103313262636 H 0.0 **** 0.06
36586 C 16.606394998997814 121.93863213147249 100.73418789627083 C 0.0 **** -0.24
36587 H 17.398782118049155 122.50136411676125 100.24094043386924 H 0.0 **** 0.06
36588 H 16.851096209158413 120.87653926239231 100.71716532261202 H 0.0 **** 0.06
36589 H 15.664559080090498 122.10400732774787 100.21165194700961 H 0.0 **** 0.06
36590 H 16.51290868371558 122.27333131649684 101.76760383583091 H 0.0 **** 0.06
36591 C 40.39774994496119 5.993392319951255 45.254911407066345 C 0.0 **** -0.24
36592 H 41.244528146792305 5.446221087849807 45.669320661390316 H 0.0 **** 0.06
36593 H 40.330153019721564 5.801072257747819 44.18357279492102 H 0.0 **** 0.06
36594 H 40.53525928870624 7.060464542070548 45.42547717755076 H 0.0 **** 0.06
36595 H 39.47969133369972 5.662504725338778 45.74171686839645 H 0.0 **** 0.06
36596 C 85.49567394896226 69.82028425491518 112.94397394727845 C 0.0 **** -0.24
36597 H 84.66981499690138 70.0711945360516 113.61056962384404 H 0.0 **** 0.06
36598 H 86.26440367311514 69.28659756201077 113.50331986943056 H 0.0 **** 0.06
36599 H 85.91738527846704 70.73515363952849 112.52752913846459 H 0.0 **** 0.06
36600 H 85.12945553545634 69.18772705942102 112.13480448219826 H 0.0 **** 0.06
36601 C 87.62176245613446 14.464326409971306 12.721556177780883 C 0.0 **** -0.24
36602 H 86.53987525447266 14.526747446222487 12.842954111891856 H 0.0 **** 0.06
36603 H 87.9435019951955 13.43250626260965 12.862217301216077 H 0.0 **** 0.06
36604 H 88.10718036354339 15.100177366367689 13.461451227658188 H 0.0 **** 0.06
36605 H 87.89461373027777 14.797794680566483 11.720284083534295 H 0.0 **** 0.06
36606 C 42.80610038966677 110.40786560710147 26.23689947012246 C 0.0 **** -0.24
36607 H 43.853564345928305 110.10786122097697 26.281119276467535 H 0.0 **** 0.06
36608 H 42.735706124214424 111.42800915418049 25.860908194102876 H 0.0 **** 0.06
36609 H 42.372144604630876 110.35733579264465 27.235698169182882 H 0.0 **** 0.06
36610 H 42.264677315806736 109.73660129247575 25.571422272002607 H 0.0 **** 0.06
36611 C 1.1146173675037403 52.89747102368773 12.88464688094166 C 0.0 **** -0.24
36612 H 1.2542821379398958 53.95854518713584 12.679627267465548 H 0.0 **** 0.06
36613 H 1.0294070065254033 52.74426006853248 13.96160297889486 H 0.0 **** 0.06
36614 H 1.9688789479778706 52.338652601252434 12.504998719464993 H 0.0 **** 0.06
36615 H 0.20519656254133167 52.549833424856075 12.394912680698837 H 0.0 **** 0.06
36616 C 60.85905389709761 2.8830353204592427 101.30223400359735 C 0.0 **** -0.24
36617 H 61.06760508844911 1.826212373190799 101.13280431931895 H 0.0 **** 0.06
36618 H 61.784505146511805 3.4524897094424603 101.22248228219293 H 0.0 **** 0.06
36619 H 60.435338987047956 3.013738503764415 102.29870534728084 H 0.0 **** 0.06
36620 H 60.148306344403935 3.236175709897651 100.55554701983962 H 0.0 **** 0.06
36621 C 103.59212632061917 66.69640942754648 104.25091625469152 C 0.0 **** -0.24
36622 H 104.67509569849449 66.61765877597912 104.15333350851587 H 0.0 **** 0.06
36623 H 103.33656303965711 67.65907990466832 104.6958114890787 H 0.0 **** 0.06
36624 H 103.22631509726233 65.89271227451184 104.88934377686972 H 0.0 **** 0.06
36625 H 103.13236565522743 66.6168685403988 103.26625842600245 H 0.0 **** 0.06
36626 C 93.65351816611462 59.15717911615084 79.99805234905864 C 0.0 **** -0.24
36627 H 94.29141960742277 60.0113402316357 79.77042928609222 H 0.0 **** 0.06
36628 H 93.38302866905866 59.17808531233091 81.0540912254603 H 0.0 **** 0.06
36629 H 94.18993944328946 58.23481197936081 79.77742429945769 H 0.0 **** 0.06
36630 H 92.74989227108512 59.20689741893645 79.39059367991163 H 0.0 **** 0.06
36631 C 38.67264435476193 79.47392410667265 35.50686556295892 C 0.0 **** -0.24
36632 H 38.00777328310006 78.82076519510593 34.94130069090602 H 0.0 **** 0.06
36633 H 38.35848858252487 79.49439391793743 36.55096369359529 H 0.0 **** 0.06
36634 H 38.63067830631957 80.48173796112837 35.09358260823052 H 0.0 **** 0.06
36635 H 39.69382662336962 79.09740080189812 35.44170636365362 H 0.0 **** 0.06
36636 C 53.07913632880995 94.66439213888653 57.64032626024033 C 0.0 **** -0.24
36637 H 53.99872729840693 95.19475119298605 57.886589130123554 H 0.0 **** 0.06
36638 H 52.278845337487795 94.99974897548601 58.30115521696797 H 0.0 **** 0.06
36639 H 53.23203108908464 93.59313431833723 57.76958011290432 H 0.0 **** 0.06
36640 H 52.80633877790159 94.87140589559566 56.60584355297297 H 0.0 **** 0.06
36641 C 65.66198972606249 123.59010530130082 63.47793509948218 C 0.0 **** -0.24
36642 H 65.76316144342115 124.67454938156995 63.52803562795759 H 0.0 **** 0.06
36643 H 66.61437896573867 123.14981545198299 63.180964823445265 H 0.0 **** 0.06
36644 H 64.8972282555095 123.33057512998441 62.74648541299143 H 0.0 **** 0.06
36645 H 65.37455667061997 123.20719459725387 64.45734888292424 H 0.0 **** 0.06
36646 C 65.73527160031536 20.173701039317677 14.65379038141694 C 0.0 **** -0.24
36647 H 65.99152865536365 21.051721974905206 15.247225550915275 H 0.0 **** 0.06
36648 H 66.00197394794452 19.27216402737281 15.206441850576581 H 0.0 **** 0.06
36649 H 66.28442321178703 20.1986956786958 13.713136659405649 H 0.0 **** 0.06
36650 H 64.66458136566186 20.172093018548935 14.450348682502792 H 0.0 **** 0.06
36651 C 31.697893068359633 13.601932751451471 60.44287097747899 C 0.0 **** -0.24
36652 H 30.840998970750974 13.055314603056644 60.048417124790134 H 0.0 **** 0.06
36653 H 32.41937998748668 13.77017067927136 59.64327524368234 H 0.0 **** 0.06
36654 H 32.16358877593217 13.020950666526971 61.23854490580993 H 0.0 **** 0.06
36655 H 31.364726241863735 14.56086463925422 60.839655807385256 H 0.0 **** 0.06
36656 C 6.741772501877321 85.93211333576025 80.10356964691478 C 0.0 **** -0.24
36657 H 7.437631551373826 85.10778012097879 80.25767223810465 H 0.0 **** 0.06
36658 H 6.316012327404806 86.23230638228344 81.06087947194156 H 0.0 **** 0.06
36659 H 5.942793147750962 85.61172541185906 79.43396652138188 H 0.0 **** 0.06
36660 H 7.271017095893356 86.77549117324614 79.65962853629073 H 0.0 **** 0.06
36661 C 59.45188239189173 31.714342618074056 19.917389650930886 C 0.0 **** -0.24
36662 H 59.91883083715982 30.846351407511577 20.380496547618257 H 0.0 **** 0.06
36663 H 59.82937686121885 32.62347511213443 20.386249737973287 H 0.0 **** 0.06
36664 H 58.371419465365946 31.659042289062995 20.0485819596787 H 0.0 **** 0.06
36665 H 59.687161917672654 31.729704531928633 18.853227887063785 H 0.0 **** 0.06
36666 C 4.368794481918684 53.60815947566053 101.68861189000579 C 0.0 **** -0.24
36667 H 3.5909812700198813 54.07296123241068 101.08229211368376 H 0.0 **** 0.06
36668 H 5.280588151684441 54.20370926957949 101.62675278569328 H 0.0 **** 0.06
36669 H 4.5651694117036925 52.60271806803553 101.31851719805367 H 0.0 **** 0.06
36670 H 4.038797414003199 53.55611366233066 102.72606833049389 H 0.0 **** 0.06
36671 C 75.99035708214993 49.46453050453337 39.72020257888022 C 0.0 **** -0.24
36672 H 75.34168361152008 50.2240787805313 40.15670098482269 H 0.0 **** 0.06
36673 H 75.51292381993564 48.4890036866216 39.802242322031475 H 0.0 **** 0.06
36674 H 76.94183286610786 49.45083272512451 40.25330200254115 H 0.0 **** 0.06
36675 H 76.16594348124221 49.697542396345995 38.66996566138033 H 0.0 **** 0.06
36676 C 120.02331261288265 111.9252640277277 115.51710693844151 C 0.0 **** -0.24
36677 H 120.08836771120444 111.05323135742199 116.16803979090062 H 0.0 **** 0.06
36678 H 119.63526506600249 112.77280040742386 116.08245808237425 H 0.0 **** 0.06
36679 H 119.35603998797451 111.70715002339503 114.68314336370602 H 0.0 **** 0.06
36680 H 121.01515727489023 112.16716778440754 115.13470993613453 H 0.0 **** 0.06
36681 C 57.7704220337603 79.62064558070475 109.7214418180462 C 0.0 **** -0.24
36682 H 57.79144254492354 80.17982177777877 108.78645262875203 H 0.0 **** 0.06
36683 H 58.39321258240798 80.1259826858017 110.46008996774935 H 0.0 **** 0.06
36684 H 58.15212009296823 78.61477933966468 109.55146149558254 H 0.0 **** 0.06
36685 H 56.74471234972103 79.56422228298197 110.08788531975887 H 0.0 **** 0.06
36686 C 7.924050517358957 93.02736449079295 24.40392198205302 C 0.0 **** -0.24
36687 H 7.1084307705892265 93.10429874296344 23.685410173065208 H 0.0 **** 0.06
36688 H 8.320671064166902 92.01246928130486 24.396337536753094 H 0.0 **** 0.06
36689 H 7.552658532641431 93.26542633014414 25.401192917067107 H 0.0 **** 0.06
36690 H 8.713879223093379 93.72885477572612 24.133820623092817 H 0.0 **** 0.06
36691 C 70.47774160495078 104.12738074291343 35.96288981919116 C 0.0 **** -0.24
36692 H 70.30871625881969 104.17544898355781 34.887506379559 H 0.0 **** 0.06
36693 H 69.53673629286834 103.91559734750918 36.470120020938225 H 0.0 **** 0.06
36694 H 70.87241236191454 105.08133126194141 36.31170362817255 H 0.0 **** 0.06
36695 H 71.19563359553052 103.33591506891749 36.181192260045435 H 0.0 **** 0.06
36696 C 108.27612968636666 76.87555189979477 54.16103090180633 C 0.0 **** -0.24
36697 H 108.51181890282588 77.91686354204538 53.94285360994496 H 0.0 **** 0.06
36698 H 109.11965535623976 76.24530892611605 53.87964871410901 H 0.0 **** 0.06
36699 H 107.39429595068134 76.57672073167683 53.5941438647493 H 0.0 **** 0.06
36700 H 108.07748206784056 76.76342662326729 55.226301142190835 H 0.0 **** 0.06
36701 C 26.52613353972226 47.78077678272566 30.248859768772377 C 0.0 **** -0.24
36702 H 27.262983086188697 47.86838398369896 31.048073444182478 H 0.0 **** 0.06
36703 H 26.245074772004905 48.77657603608622 29.904060409830777 H 0.0 **** 0.06
36704 H 25.643373583343397 47.26317089630758 30.624481549230893 H 0.0 **** 0.06
36705 H 26.954256767233005 47.21620377811032 29.421680566501834 H 0.0 **** 0.06
36706 C 119.37380947201969 3.371794884558483 6.436470476280434 C 0.0 **** -0.24
36707 H 118.47552129434082 2.868647287842748 6.078092777643235 H 0.0 **** 0.06
36708 H 120.16584858427767 2.6375813101212486 6.586621146549149 H 0.0 **** 0.06
36709 H 119.15709485873472 3.8708121547259964 7.381417718597945 H 0.0 **** 0.06
36710 H 119.69564021091902 4.108556065394794 5.701237463079963 H 0.0 **** 0.06
36711 C 107.934487584344 77.31536970418597 83.43737167559712 C 0.0 **** -0.24
36712 H 108.75874428083603 76.60791879986851 83.34664227489293 H 0.0 **** 0.06
36713 H 107.6157202771829 77.62988719052743 82.44344266443409 H 0.0 **** 0.06
36714 H 108.26394953858997 78.18539954457049 84.00502701523789 H 0.0 **** 0.06
36715 H 107.1016147244477 76.83820905931202 83.95308010393197 H 0.0 **** 0.06
36716 C 59.21805833945133 35.23599061736337 120.26039101453742 C 0.0 **** -0.24
36717 H 58.20759982199026 35.58095942102946 120.04033003423811 H 0.0 **** 0.06
36718 H 59.57536492054041 34.610072463460796 119.44229309117296 H 0.0 **** 0.06
36719 H 59.21020322191373 34.6573290297395 121.18449967336042 H 0.0 **** 0.06
36720 H 59.87823526756132 36.09508191178037 120.37546153830837 H 0.0 **** 0.06
36721 C 66.35971473337324 77.44090957346756 117.86384487433494 C 0.0 **** -0.24
36722 H 66.49565298229838 76.6207468702714 117.15796477821951 H 0.0 **** 0.06
36723 H 65.96281958380327 78.30895297966154 117.33846545356243 H 0.0 **** 0.06
36724 H 67.31885398637834 77.69472128258357 118.31417493828201 H 0.0 **** 0.06
36725 H 65.66105038974358 77.13613124432848 118.64365835667067 H 0.0 **** 0.06
36726 C 106.7058117843623 40.887232019800365 76.10358160870447 C 0.0 **** -0.24
36727 H 106.81676737804463 41.13937159693691 75.04885690096089 H 0.0 **** 0.06
36728 H 106.36046661865015 41.764446873593926 76.65138500808203 H 0.0 **** 0.06
36729 H 107.66793740060741 40.56591309026791 76.50260059770423 H 0.0 **** 0.06
36730 H 105.98007383708094 40.081590055062094 76.21035291933347 H 0.0 **** 0.06
36731 C 13.18752702058643 103.76296271105673 60.01402552216956 C 0.0 **** -0.24
36732 H 12.772382338459352 102.81186887759071 59.67925370754887 H 0.0 **** 0.06
36733 H 12.750642978209669 104.03031472427273 60.976736277352956 H 0.0 **** 0.06
36734 H 12.95755855705724 104.53672729583025 59.281857128365004 H 0.0 **** 0.06
36735 H 14.268344453730691 103.6700908278467 60.117554092148595 H 0.0 **** 0.06
36736 C 113.3417220968596 116.12099848513174 57.84665347785955 C 0.0 **** -0.24
36737 H 112.86610748291221 115.17221780763089 57.59601084029799 H 0.0 **** 0.06
36738 H 112.66857548768704 116.70985780021408 58.47027122378809 H 0.0 **** 0.06
36739 H 113.56242483387518 116.66871898308841 56.931282959946074 H 0.0 **** 0.06
36740 H 114.26750314878947 115.93103595804166 58.38941435534166 H 0.0 **** 0.06
36741 C 67.23769871512664 6.569210236731777 2.9946537238734035 C 0.0 **** -0.24
36742 H 66.4792964326086 6.649150104412129 2.215496273872402 H 0.0 **** 0.06
36743 H 67.25047823413126 5.552130114319368 3.3862369302595354 H 0.0 **** 0.06
36744 H 67.00590820177834 7.266780980173763 3.8001076180935893 H 0.0 **** 0.06
36745 H 68.21502892987417 6.810302335356681 2.5751385010100396 H 0.0 **** 0.06
36746 C 31.143417655963447 54.38890788956303 21.874844521945818 C 0.0 **** -0.24
36747 H 30.998723232462112 55.0028099026176 20.986083289595967 H 0.0 **** 0.06
36748 H 30.578288407432808 54.812686511272204 22.705097693460147 H 0.0 **** 0.06
36749 H 32.202631359187734 54.363332825210875 22.13012267495742 H 0.0 **** 0.06
36750 H 30.793744156318837 53.37554733554322 21.676245514818618 H 0.0 **** 0.06
36751 C 36.11422746096986 38.19533752333507 65.41122179419452 C 0.0 **** -0.24
36752 H 35.641076746612725 38.716026521773074 66.24341230409101 H 0.0 **** 0.06
36753 H 36.13959128293055 37.125904378262476 65.61853578144857 H 0.0 **** 0.06
36754 H 37.13124183066654 38.56542993360409 65.28241933050808 H 0.0 **** 0.06
36755 H 35.54397378442118 38.37524553278257 64.49934975750745 H 0.0 **** 0.06
36756 C 109.81134649000114 116.05130631280537 105.97591928552293 C 0.0 **** -0.24
36757 H 108.9845848406197 115.36672210409327 106.16845864649491 H 0.0 **** 0.06
36758 H 109.85687824559625 116.27413503495578 104.90960602874003 H 0.0 **** 0.06
36759 H 110.746178085556 115.58826489769837 106.2910957739391 H 0.0 **** 0.06
36760 H 109.65642462052342 116.97431718405193 106.53425684552104 H 0.0 **** 0.06
36761 C 79.44786918360174 80.76720850439298 2.7861393208174263 C 0.0 **** -0.24
36762 H 78.93134542437119 80.15434776362014 2.047742679426989 H 0.0 **** 0.06
36763 H 80.50645288225408 80.50623971458 2.798246792938116 H 0.0 **** 0.06
36764 H 79.01796441072977 80.58742500580681 3.7720640365837994 H 0.0 **** 0.06
36765 H 79.33623388811534 81.81953170048868 2.5267610134319938 H 0.0 **** 0.06
36766 C 35.48154060431881 68.50354088568648 30.92057461295459 C 0.0 **** -0.24
36767 H 34.51097432464914 68.64214719674723 31.39781578979658 H 0.0 **** 0.06
36768 H 35.81210047727669 69.44840297427757 30.488655017342126 H 0.0 **** 0.06
36769 H 35.39548683842452 67.75469054173257 30.13393520457869 H 0.0 **** 0.06
36770 H 36.206501513186 68.17046286956244 31.663084147054597 H 0.0 **** 0.06
36771 C 82.51131792226047 36.994410531712674 12.416257213987961 C 0.0 **** -0.24
36772 H 82.47899023509487 35.952584890757294 12.737135744903497 H 0.0 **** 0.06
36773 H 81.88238058787962 37.12316799955522 11.535464365428027 H 0.0 **** 0.06
36774 H 83.53784431198991 37.26698103564907 12.17395053465384 H 0.0 **** 0.06
36775 H 82.14553787564856 37.6327076394972 13.22045026189457 H 0.0 **** 0.06
36776 C 72.35955098756403 73.52772429615968 70.3366261768327 C 0.0 **** -0.24
36777 H 72.76618065931237 73.91197087804471 71.27279744937255 H 0.0 **** 0.06
36778 H 71.29083539464138 73.74099835268987 70.29117344050641 H 0.0 **** 0.06
36779 H 72.51792328297027 72.45024188203888 70.28728460337135 H 0.0 **** 0.06
36780 H 72.86250563382205 74.00846591365953 69.49838232543195 H 0.0 **** 0.06
36781 C 122.25593308381923 41.27198315572596 22.69982279130795 C 0.0 **** -0.24
36782 H 121.69210474391119 40.42451971904802 22.31038728299208 H 0.0 **** 0.06
36783 H 122.40939680563666 42.00241599749009 21.905133868369887 H 0.0 **** 0.06
36784 H 123.22118613237255 40.92776405605093 23.06921471446833 H 0.0 **** 0.06
36785 H 121.69814680964201 41.734484012620015 23.51474928633229 H 0.0 **** 0.06
36786 C 17.05670975224865 94.0250598463692 98.94582744399302 C 0.0 **** -0.24
36787 H 17.626692428082663 94.63539833752881 98.2456529246029 H 0.0 **** 0.06
36788 H 16.52537798595148 93.24489436300595 98.39944556750658 H 0.0 **** 0.06
36789 H 16.33944418351581 94.65295827093976 99.47351990200188 H 0.0 **** 0.06
36790 H 17.73671781940385 93.56710905856087 99.66490106351601 H 0.0 **** 0.06
36791 C 6.7578899292300605 66.17277155887467 36.15191535824522 C 0.0 **** -0.24
36792 H 5.757747333185989 66.59684930832117 36.24128849585756 H 0.0 **** 0.06
36793 H 6.937641530675052 65.48732600113999 36.98000740895155 H 0.0 **** 0.06
36794 H 7.496131138587231 66.97524409510333 36.17742091563541 H 0.0 **** 0.06
36795 H 6.840794711867375 65.63333101470175 35.20813178671568 H 0.0 **** 0.06
36796 C 28.609288435496282 4.98627425069769 94.91705776668606 C 0.0 **** -0.24
36797 H 29.593125075050153 4.619670871243443 94.62497881972592 H 0.0 **** 0.06
36798 H 28.668592629194933 5.432730456718161 95.91022927062166 H 0.0 **** 0.06
36799 H 27.902431565745985 4.1571297921182975 94.93250121362689 H 0.0 **** 0.06
36800 H 28.274153840907786 5.736635594148623 94.20125308309038 H 0.0 **** 0.06
36801 C 2.629821902173205 17.889054477247498 2.0707660616131136 C 0.0 **** -0.24
36802 H 1.6630889803354307 18.379658425184918 2.1897156369961728 H 0.0 **** 0.06
36803 H 3.321613971669592 18.56691312220305 1.5712252017385477 H 0.0 **** 0.06
36804 H 2.507536511900753 16.986978689562118 1.471280229973063 H 0.0 **** 0.06
36805 H 3.0248973690933667 17.62326225775624 3.050987745583649 H 0.0 **** 0.06
36806 C 5.911202532112583 7.857743864446888 29.886791412101275 C 0.0 **** -0.24
36807 H 5.437717954449624 6.897731393893409 30.091322812176088 H 0.0 **** 0.06
36808 H 5.148893158778975 8.587118072484955 29.611901577259147 H 0.0 **** 0.06
36809 H 6.620432834952595 7.745205183289855 29.066530385842867 H 0.0 **** 0.06
36810 H 6.438439294975609 8.200218219513658 30.777641826514014 H 0.0 **** 0.06
36811 C 120.74801089040506 52.1808808444047 24.52797542601587 C 0.0 **** -0.24
36812 H 120.58944643358058 52.51639376049995 23.50346234055681 H 0.0 **** 0.06
36813 H 120.92445352006297 51.10457299938321 24.534548803415476 H 0.0 **** 0.06
36814 H 119.86465768591142 52.40818752316795 25.125515840558222 H 0.0 **** 0.06
36815 H 121.61336528449169 52.693603350817895 24.949006492205484 H 0.0 **** 0.06
36816 C 85.99122785404725 11.808877323358942 109.08553859701088 C 0.0 **** -0.24
36817 H 85.83775222824659 11.249228927889234 110.00904154454611 H 0.0 **** 0.06
36818 H 85.92665759273092 11.129241741589638 108.2352845685885 H 0.0 **** 0.06
36819 H 86.9756990134459 12.276110321251423 109.10393844427512 H 0.0 **** 0.06
36820 H 85.22502383903523 12.578853390264854 108.99517283699666 H 0.0 **** 0.06
36821 C 72.20771373434997 74.58333821650896 80.4424423003021 C 0.0 **** -0.24
36822 H 72.30997321514965 75.43698821224982 81.11251572481999 H 0.0 **** 0.06
36823 H 71.21218633057757 74.15322122236827 80.5516680370495 H 0.0 **** 0.06
36824 H 72.95828339767513 73.83401958406408 80.69230712328377 H 0.0 **** 0.06
36825 H 72.35120838581568 74.91204688072435 79.41237157892587 H 0.0 **** 0.06
36826 C 12.716381323278597 88.41562317074548 44.17205969102305 C 0.0 **** -0.24
36827 H 12.896248928135321 89.38829506571616 43.71596030605385 H 0.0 **** 0.06
36828 H 13.070650261375249 88.42702562511377 45.203042346176304 H 0.0 **** 0.06
36829 H 13.251355997786504 87.64765909766605 43.6126152949254 H 0.0 **** 0.06
36830 H 11.648185328232671 88.19807543693585 44.156310583809685 H 0.0 **** 0.06
36831 C 109.48302831193277 99.21769675208421 20.851283122681792 C 0.0 **** -0.24
36832 H 109.93061482281715 100.210947905278 20.827363795107175 H 0.0 **** 0.06
36833 H 108.45335189673659 99.27430969736159 20.499176427539936 H 0.0 **** 0.06
36834 H 109.49721483374634 98.83810987734202 21.873627158598254 H 0.0 **** 0.06
36835 H 110.05162078273327 98.54723959295663 20.20708479075077 H 0.0 **** 0.06
36836 C 89.94076602860247 52.405515775418564 82.07461527054221 C 0.0 **** -0.24
36837 H 90.03575990031709 52.73185445201399 83.1097809023135 H 0.0 **** 0.06
36838 H 90.8443658552178 51.87116580818119 81.77785058330375 H 0.0 **** 0.06
36839 H 89.80455457498911 53.274440264113736 81.43047134137174 H 0.0 **** 0.06
36840 H 89.07915798943151 51.74464472245916 81.97917548858794 H 0.0 **** 0.06
36841 C 72.0788075301432 22.82152682160544 64.0285308378747 C 0.0 **** -0.24
36842 H 71.67539446975053 22.41049018017106 63.10308797574852 H 0.0 **** 0.06
36843 H 71.55900450077377 22.378925373046023 64.87856054581157 H 0.0 **** 0.06
36844 H 71.93717497546956 23.90219905965411 64.03771967696788 H 0.0 **** 0.06
36845 H 73.1424619212452 22.593099583312352 64.09347713627251 H 0.0 **** 0.06
36846 C 96.33430154858917 16.798815961976942 56.51204332243526 C 0.0 **** -0.24
36847 H 96.48982782110956 17.870087667332015 56.38087065757094 H 0.0 **** 0.06
36848 H 96.3135236300139 16.312091016595787 55.53701624189321 H 0.0 **** 0.06
36849 H 95.38770717602765 16.628519070256033 57.02388579017216 H 0.0 **** 0.06
36850 H 97.14865570963988 16.38501204429474 57.1082743359068 H 0.0 **** 0.06
36851 C 14.984994622828182 25.613791363193343 22.2161127879711 C 0.0 **** -0.24
36852 H 14.663362291657002 26.505613265765476 21.679811609439952 H 0.0 **** 0.06
36853 H 15.041108880659966 25.832340732014416 23.283028497172467 H 0.0 **** 0.06
36854 H 15.966180683877258 25.30738396360033 21.854929911167545 H 0.0 **** 0.06
36855 H 14.268389815955288 24.809521814010452 22.046510884826006 H 0.0 **** 0.06
36856 C 11.549907624305394 6.235337542235726 24.90054229403742 C 0.0 **** -0.24
36857 H 10.561822881283724 6.35453565093276 24.455726519274066 H 0.0 **** 0.06
36858 H 11.858772903753056 7.177344805454581 25.354030198670927 H 0.0 **** 0.06
36859 H 12.264176576235833 5.951760793321569 24.128186969957937 H 0.0 **** 0.06
36860 H 11.51205203162099 5.458762712291161 25.664099864573956 H 0.0 **** 0.06
36861 C 104.96400005125265 43.909471784438296 94.04370455692721 C 0.0 **** -0.24
36862 H 104.5957060462171 44.62737941365461 94.77617014557279 H 0.0 **** 0.06
36863 H 104.40114863722687 42.98048098020912 94.12996598304963 H 0.0 **** 0.06
36864 H 106.01984876785123 43.71387350977824 94.22694601493284 H 0.0 **** 0.06
36865 H 104.83885402213166 44.31845747670144 93.04103268059012 H 0.0 **** 0.06
36866 C 84.06218904571327 50.351568070344484 58.003426125835404 C 0.0 **** -0.24
36867 H 83.19979184875399 51.00172694113425 58.154470112795934 H 0.0 **** 0.06
36868 H 84.0470303747852 49.55166807575782 58.74401234212792 H 0.0 **** 0.06
36869 H 84.97790073367104 50.93204200428556 58.11342519619768 H 0.0 **** 0.06
36870 H 84.02138883788429 49.92207793588315 57.00300660705767 H 0.0 **** 0.06
36871 C 23.99077257891679 86.41825348135986 54.236775156776844 C 0.0 **** -0.24
36872 H 24.279200521557016 86.88036987119688 53.29223002053675 H 0.0 **** 0.06
36873 H 23.176335786187735 85.71428313159527 54.06239560513018 H 0.0 **** 0.06
36874 H 23.662095359340526 87.18953216862444 54.93237138063398 H 0.0 **** 0.06
36875 H 24.84566798263353 85.88878958767808 54.6566459787291 H 0.0 **** 0.06
36876 C 63.46274662070638 34.51219323415654 60.83431837708861 C 0.0 **** -0.24
36877 H 63.23121483750133 33.5215866640425 60.44357506475967 H 0.0 **** 0.06
36878 H 62.589488797530066 35.1564026625785 60.73279161996294 H 0.0 **** 0.06
36879 H 64.29493230675739 34.93751426166182 60.273228613666504 H 0.0 **** 0.06
36880 H 63.73616629213409 34.433634219924045 61.88658206849419 H 0.0 **** 0.06
36881 C 79.92202422618162 121.4624463343237 16.708968257952833 C 0.0 **** -0.24
36882 H 80.04404674390686 122.1626756742157 15.881877484546536 H 0.0 **** 0.06
36883 H 79.79338407014193 120.45372454209189 16.315025590550633 H 0.0 **** 0.06
36884 H 79.0431884769674 121.73946270329932 17.291533605483565 H 0.0 **** 0.06
36885 H 80.80559352260956 121.49502639677476 17.34632650770891 H 0.0 **** 0.06
36886 C 65.79295483055579 1.1799251464028657 11.677056943327443 C 0.0 **** -0.24
36887 H 66.01803502590681 1.9989069354443387 12.361086552011983 H 0.0 **** 0.06
36888 H 66.07434811564448 1.466536201527333 10.663192213309927 H 0.0 **** 0.06
36889 H 64.72588775869443 0.9610946948709085 11.71074344855333 H 0.0 **** 0.06
36890 H 66.35567004001335 0.29489150167458433 11.973920119844507 H 0.0 **** 0.06
36891 C 34.00524501110053 29.193974608483586 83.84180400204896 C 0.0 **** -0.24
36892 H 33.08392515220888 29.574698825197572 83.39993123148149 H 0.0 **** 0.06
36893 H 33.87843665974523 28.141476970124984 84.09616220076276 H 0.0 **** 0.06
36894 H 34.23681102908313 29.76108844660814 84.74367861011405 H 0.0 **** 0.06
36895 H 34.821618824169576 29.300342202413105 83.12642052643321 H 0.0 **** 0.06
36896 C 58.68207814395561 24.578054251162598 31.881198914730106 C 0.0 **** -0.24
36897 H 58.539256408817494 23.865997102254454 31.068189510050843 H 0.0 **** 0.06
36898 H 59.520934322838514 24.259966202886886 32.49966311888832 H 0.0 **** 0.06
36899 H 57.777438795482624 24.620807603138246 32.4882257166243 H 0.0 **** 0.06
36900 H 58.889125122927965 25.564665161286285 31.46699588096618 H 0.0 **** 0.06
36901 C 53.00389518256024 0.60561258268703 16.300249234646646 C 0.0 **** -0.24
36902 H 53.6128149313202 1.243581150696599 15.658906419317681 H 0.0 **** 0.06
36903 H 53.64384736887445 -0.11532061941883853 16.808495432205902 H 0.0 **** 0.06
36904 H 52.2703531749939 0.07606412706678611 15.692894951822904 H 0.0 **** 0.06
36905 H 52.488533187733154 1.2196294870608426 17.038304735032643 H 0.0 **** 0.06
36906 C 55.7341214866524 24.428691777454304 8.049445056387356 C 0.0 **** -0.24
36907 H 54.778869044291994 24.18591502503827 7.58532884265702 H 0.0 **** 0.06
36908 H 55.953198037613944 23.70060180395717 8.830734493736713 H 0.0 **** 0.06
36909 H 55.68320446041942 25.426312248449506 8.484910928100476 H 0.0 **** 0.06
36910 H 56.52100144445416 24.39989318340764 7.295926467484037 H 0.0 **** 0.06
36911 C 13.02139130981243 88.68800863633906 25.462345233711346 C 0.0 **** -0.24
36912 H 13.465135185398793 87.70332842783318 25.612205211687638 H 0.0 **** 0.06
36913 H 12.001257975349944 88.68915790760282 25.845785378406163 H 0.0 **** 0.06
36914 H 13.010315873973923 88.92218730037824 24.397608447830123 H 0.0 **** 0.06
36915 H 13.610728366793268 89.43569487965937 25.99213270454578 H 0.0 **** 0.06
36916 C 26.836052363798736 48.776962235612956 73.9642430228427 C 0.0 **** -0.24
36917 H 27.201479968553876 48.56795861552209 74.96946182347126 H 0.0 **** 0.06
36918 H 27.659666901206315 49.13818206797805 73.34676011541485 H 0.0 **** 0.06
36919 H 26.056410724973603 49.537494525180364 74.01109680613088 H 0.0 **** 0.06
36920 H 26.428492386009324 47.8651570334051 73.52834072559706 H 0.0 **** 0.06
36921 C 14.837686823570934 73.23770884153055 50.437667470111776 C 0.0 **** -0.24
36922 H 14.482983328353924 72.43665123018337 51.08643388193588 H 0.0 **** 0.06
36923 H 15.832378172290788 73.55013627117103 50.75847274978952 H 0.0 **** 0.06
36924 H 14.153244367970174 74.08375779026758 50.49747879162772 H 0.0 **** 0.06
36925 H 14.883386461705271 72.87885027479905 49.409457969005636 H 0.0 **** 0.06
36926 C 7.8138793137638345 83.98368309184966 37.29188287648172 C 0.0 **** -0.24
36927 H 8.763452071119218 84.48159857564579 37.093253805121094 H 0.0 **** 0.06
36928 H 7.1894332888929995 84.02232781442112 36.39843923615449 H 0.0 **** 0.06
36929 H 7.3047559418996 84.48727559479046 38.11370140594997 H 0.0 **** 0.06
36930 H 7.998830362494701 82.9437631773575 37.56232404262573 H 0.0 **** 0.06
36931 C 116.96998514724305 46.96605223630659 119.964771768048 C 0.0 **** -0.24
36932 H 117.94801412647448 47.268035482606585 120.34017977543289 H 0.0 **** 0.06
36933 H 116.44569970425624 46.39776438449247 120.73361404315045 H 0.0 **** 0.06
36934 H 117.09702359225264 46.345626205150154 119.07734993696627 H 0.0 **** 0.06
36935 H 116.39005589627459 47.851968262370804 119.70872393682413 H 0.0 **** 0.06
36936 C 101.62393655038322 78.646518999281 44.2031523938268 C 0.0 **** -0.24
36937 H 102.26203698111328 79.52939489814798 44.245985962871515 H 0.0 **** 0.06
36938 H 100.58807761827622 78.95226557993209 44.05981729437095 H 0.0 **** 0.06
36939 H 101.7124802312136 78.08951481326449 45.13621996529265 H 0.0 **** 0.06
36940 H 101.93649891908272 78.0136196420998 43.37166038626581 H 0.0 **** 0.06
36941 C 34.26977440305549 58.489984509207886 47.02145973161828 C 0.0 **** -0.24
36942 H 33.48859426415079 57.965573009027196 47.571103103442056 H 0.0 **** 0.06
36943 H 33.830499180786234 59.322521746778534 46.47072040714545 H 0.0 **** 0.06
36944 H 34.74558519448283 57.80260049718953 46.321536125438115 H 0.0 **** 0.06
36945 H 35.01438881715846 58.86902899042872 47.72150284964556 H 0.0 **** 0.06
36946 C 24.7387774630387 37.56982734229496 78.49472316209084 C 0.0 **** -0.24
36947 H 24.957148244224086 38.56251724032006 78.88818429885016 H 0.0 **** 0.06
36948 H 24.337659517712694 36.94393526210365 79.29217675319168 H 0.0 **** 0.06
36949 H 25.655733000889015 37.12272686182513 78.10903483983637 H 0.0 **** 0.06
36950 H 24.007155678607376 37.64972811170304 77.69127117863775 H 0.0 **** 0.06
36951 C 24.357203421473486 76.00744180645145 113.51124329836995 C 0.0 **** -0.24
36952 H 24.387103395307804 76.29062611519284 112.46003911293096 H 0.0 **** 0.06
36953 H 23.33095665958311 76.06643744667895 113.87485689380111 H 0.0 **** 0.06
36954 H 24.986448043921456 76.68547520953759 114.08866400252556 H 0.0 **** 0.06
36955 H 24.724669277270806 74.98721920682819 113.62439112420542 H 0.0 **** 0.06
36956 C 21.351007385125996 72.67164585320131 109.28473690142599 C 0.0 **** -0.24
36957 H 22.012121313143126 72.80995132772505 110.1400044937362 H 0.0 **** 0.06
36958 H 20.45150346813105 73.27226796649505 109.41981275882449 H 0.0 **** 0.06
36959 H 21.07740722148739 71.620080596892 109.20337275434576 H 0.0 **** 0.06
36960 H 21.863999715530213 72.98481833435939 108.37491514859596 H 0.0 **** 0.06
36961 C 3.0733060933135317 18.20405932253294 96.726442378986 C 0.0 **** -0.24
36962 H 2.817428999981697 18.923111205504426 95.94868922240735 H 0.0 **** 0.06
36963 H 2.4971652493644747 18.422915475585 97.62662820990015 H 0.0 **** 0.06
36964 H 4.137334104450115 18.27475656621175 96.95037307187833 H 0.0 **** 0.06
36965 H 2.8403885752472817 17.197450540838588 96.38117027820194 H 0.0 **** 0.06
36966 C 68.45021062086397 6.439770264182442 70.33408885922552 C 0.0 **** -0.24
36967 H 68.65858328906506 6.875202083761195 71.31088035038027 H 0.0 **** 0.06
36968 H 69.13930765887704 6.852409674114284 69.59716640683655 H 0.0 **** 0.06
36969 H 67.42529671133332 6.672155014325341 70.04397588020834 H 0.0 **** 0.06
36970 H 68.57618485674942 5.3577772284399146 70.38502339519835 H 0.0 **** 0.06
36971 C 2.3491281234453822 116.63601317272631 23.600732742940153 C 0.0 **** -0.24
36972 H 2.782929550281551 116.9218458207861 22.64285347618852 H 0.0 **** 0.06
36973 H 3.1146289770238695 116.16743087118411 24.22072054585334 H 0.0 **** 0.06
36974 H 1.5348010245419346 115.9314823730661 23.43459911828134 H 0.0 **** 0.06
36975 H 1.9656546551394172 117.52262780294652 24.105307102004275 H 0.0 **** 0.06
36976 C 29.05769695534579 118.99190770853713 82.74099057592232 C 0.0 **** -0.24
36977 H 29.648610815855108 119.18138192350486 81.8447020871958 H 0.0 **** 0.06
36978 H 29.712630314546942 118.64879647063549 83.54220884076203 H 0.0 **** 0.06
36979 H 28.3112835676082 118.22683565840302 82.5282407231802 H 0.0 **** 0.06
36980 H 28.5590575166664 119.9119042379049 83.04688407078208 H 0.0 **** 0.06
36981 C 1.4361841397271746 21.590568378922598 13.806713518486 C 0.0 **** -0.24
36982 H 0.9788910580400625 22.26269312365548 14.533282240534788 H 0.0 **** 0.06
36983 H 2.226662786432513 21.016935049545225 14.290949034864287 H 0.0 **** 0.06
36984 H 1.8574716230587427 22.173539685378188 12.988305327425067 H 0.0 **** 0.06
36985 H 0.6794982807290495 20.910074148298065 13.415789178578923 H 0.0 **** 0.06
36986 C 44.80153642140152 58.96822047693492 0.30448347490849414 C 0.0 **** -0.24
36987 H 45.83560472493099 58.82488925477929 -0.007746520393922651 H 0.0 **** 0.06
36988 H 44.4233708807177 59.904367305241635 -0.10744940624016408 H 0.0 **** 0.06
36989 H 44.75334498236464 59.004792833524704 1.393084773698689 H 0.0 **** 0.06
36990 H 44.1939581151305 58.13921398270439 -0.05827062294254404 H 0.0 **** 0.06
36991 C 16.295779931230953 96.66326432822976 58.51578160616512 C 0.0 **** -0.24
36992 H 15.75663025382238 96.20591953501234 59.34520734484066 H 0.0 **** 0.06
36993 H 17.323479204361902 96.86319347696706 58.81764117816114 H 0.0 **** 0.06
36994 H 15.809792789674788 97.59832129787573 58.23784519138616 H 0.0 **** 0.06
36995 H 16.292997866877585 95.98411986618478 57.66326488318718 H 0.0 **** 0.06
36996 C 49.50407011833383 75.03838446591791 51.41850016418233 C 0.0 **** -0.24
36997 H 49.49434637583562 74.11518877456163 51.99837765152607 H 0.0 **** 0.06
36998 H 48.47991420428167 75.32797256357134 51.1803716749958 H 0.0 **** 0.06
36999 H 50.06228807790421 74.88229640693623 50.496455247074664 H 0.0 **** 0.06
37000 H 49.977776975171594 75.82785141939053 52.002419232079745 H 0.0 **** 0.06
37001 C 29.983543587446917 54.81153221727905 104.13597010460143 C 0.0 **** -0.24
37002 H 30.041218361504235 55.17800494441789 105.16151490409885 H 0.0 **** 0.06
37003 H 29.059295050537344 55.1638245625187 103.67636861228951 H 0.0 **** 0.06
37004 H 29.996205325933346 53.7221194781537 104.13900516757195 H 0.0 **** 0.06
37005 H 30.836727842508253 55.18403978386408 103.56840998906773 H 0.0 **** 0.06
37006 C 17.760035033515095 57.33947930802083 114.79521367659615 C 0.0 **** -0.24
37007 H 18.523274086554864 57.748685891263264 115.45674357053511 H 0.0 **** 0.06
37008 H 18.237746487716706 56.761345804786345 114.00343959703036 H 0.0 **** 0.06
37009 H 17.18641703003226 58.15480472073574 114.3535932478371 H 0.0 **** 0.06
37010 H 17.09299041066069 56.69331801867571 115.36615043713212 H 0.0 **** 0.06
37011 C 18.817704504049118 54.21351448633304 54.24991515945692 C 0.0 **** -0.24
37012 H 17.845280048736356 54.66686876823137 54.44340238459537 H 0.0 **** 0.06
37013 H 18.677879046621314 53.19464818976955 53.8896458402144 H 0.0 **** 0.06
37014 H 19.39880282228677 54.19643107248601 55.17240453838022 H 0.0 **** 0.06
37015 H 19.347576223934908 54.79599733066678 53.49691891288552 H 0.0 **** 0.06
37016 C 107.85231304224628 57.645099758066294 25.01984966228042 C 0.0 **** -0.24
37017 H 107.15462916476764 56.87457827574528 24.69142071753339 H 0.0 **** 0.06
37018 H 107.3903126538447 58.62601524144097 24.903547385114166 H 0.0 **** 0.06
37019 H 108.7583181813436 57.59629932951472 24.41560887785016 H 0.0 **** 0.06
37020 H 108.1044919750139 57.48442298856625 26.067439945681087 H 0.0 **** 0.06
37021 C 31.214500437458327 100.05486059656643 24.64250444227659 C 0.0 **** -0.24
37022 H 31.13168644319188 99.09975382807143 25.1602887227856 H 0.0 **** 0.06
37023 H 30.551164432769184 100.05849449162055 23.777379673011872 H 0.0 **** 0.06
37024 H 32.24400302323903 100.20055134566864 24.312031361469344 H 0.0 **** 0.06
37025 H 30.933380270545626 100.86070498492765 25.32043067347761 H 0.0 **** 0.06
37026 C 101.05054986665478 41.51465763813046 89.10133555330759 C 0.0 **** -0.24
37027 H 102.06034532319313 41.35606654656779 88.72339946650601 H 0.0 **** 0.06
37028 H 101.05810908543015 41.46410587827316 90.19088370369172 H 0.0 **** 0.06
37029 H 100.3896890137299 40.74236656968408 88.7061163563585 H 0.0 **** 0.06
37030 H 100.6931086741901 42.495087704485144 88.7846346683072 H 0.0 **** 0.06
37031 C 92.60715503615619 3.5275071030472205 90.84998561803334 C 0.0 **** -0.24
37032 H 92.95768669610274 3.2671542310904655 89.8512395807252 H 0.0 **** 0.06
37033 H 93.26120109439684 4.286535920779546 91.2780050813221 H 0.0 **** 0.06
37034 H 92.61950835750233 2.6389952238133034 91.48203925210814 H 0.0 **** 0.06
37035 H 91.5907101624059 3.9160393995900193 90.78840502125146 H 0.0 **** 0.06
37036 C 98.47122711268122 28.374044892041283 76.6644525926086 C 0.0 **** -0.24
37037 H 98.26729359681016 28.065321808323063 77.689297379717 H 0.0 **** 0.06
37038 H 99.22404922834546 27.715195438779205 76.22988378168714 H 0.0 **** 0.06
37039 H 98.83952294552317 29.39991461083703 76.66018588123768 H 0.0 **** 0.06
37040 H 97.55418135559276 28.314396826925517 76.07804837127856 H 0.0 **** 0.06
37041 C 96.53000441427918 111.86473534954057 51.67895714728349 C 0.0 **** -0.24
37042 H 96.29443422630372 112.17931898870891 50.66259033702384 H 0.0 **** 0.06
37043 H 95.84688114630879 112.3498353200181 52.37744438475542 H 0.0 **** 0.06
37044 H 97.55579680889144 112.14677582879078 51.918207828448274 H 0.0 **** 0.06
37045 H 96.42362015503892 110.78231438731956 51.75764649145458 H 0.0 **** 0.06
37046 C 103.4271280794144 6.1673822290727855 4.918641956206869 C 0.0 **** -0.24
37047 H 103.57232486131795 6.159314263437892 5.998725512894396 H 0.0 **** 0.06
37048 H 102.47113523994611 5.701449713876798 4.677552045890309 H 0.0 **** 0.06
37049 H 104.23335777189672 5.61337716001097 4.439270806052349 H 0.0 **** 0.06
37050 H 103.42984629546447 7.196961116344056 4.559350029784923 H 0.0 **** 0.06
37051 C 56.4177494600076 28.893837150601293 90.14352546084038 C 0.0 **** -0.24
37052 H 55.59532767392966 28.89550126787288 89.42713630435463 H 0.0 **** 0.06
37053 H 56.84468643662615 29.894022498932692 90.20748420385698 H 0.0 **** 0.06
37054 H 57.183895537317426 28.191024767434705 89.81411428783025 H 0.0 **** 0.06
37055 H 56.045519048388826 28.592909704251674 91.12254480302786 H 0.0 **** 0.06
37056 C 91.52090133574545 0.31261059738889685 68.21224326358043 C 0.0 **** -0.24
37057 H 91.63070180243422 0.46161334722884817 67.1373573033745 H 0.0 **** 0.06
37058 H 90.56938793923334 0.7306411034088569 68.54162827721333 H 0.0 **** 0.06
37059 H 92.33734682842197 0.8130712098128754 68.73235730013783 H 0.0 **** 0.06
37060 H 91.54711015075803 -0.753207659097626 68.43532656437736 H 0.0 **** 0.06
37061 C 71.20748537906064 98.6329141570085 81.91313377224498 C 0.0 **** -0.24
37062 H 71.4446671285837 98.23168873448256 82.89883034033517 H 0.0 **** 0.06
37063 H 71.2446414961006 99.7215535506762 81.94592665561427 H 0.0 **** 0.06
37064 H 70.20736841466575 98.31093353850541 81.62154452301735 H 0.0 **** 0.06
37065 H 71.93294774745979 98.26597924355546 81.18703678757925 H 0.0 **** 0.06
37066 C 6.861092237105687 82.76133353492787 15.734546010470314 C 0.0 **** -0.24
37067 H 6.54346579140255 81.73095805865563 15.57272957004361 H 0.0 **** 0.06
37068 H 5.984504639092215 83.40894803604516 15.774161872301612 H 0.0 **** 0.06
37069 H 7.507480700180032 83.07515640754951 14.915041980534319 H 0.0 **** 0.06
37070 H 7.406524172472977 82.83047974505547 16.675773675326255 H 0.0 **** 0.06
37071 C 71.75077275092704 2.736250803369657 55.41367893813464 C 0.0 **** -0.24
37072 H 71.79759777073221 3.1702883753128788 56.413087053062895 H 0.0 **** 0.06
37073 H 71.77220192725026 3.533417024825283 54.67084955476531 H 0.0 **** 0.06
37074 H 70.8291101661363 2.1650488403393666 55.3091178205849 H 0.0 **** 0.06
37075 H 72.60585448499225 2.0769649057691453 55.264434038552906 H 0.0 **** 0.06
37076 C 72.29612805211187 9.127833983660452 61.08906750004343 C 0.0 **** -0.24
37077 H 72.28046798812458 8.119036413484793 60.67384340241682 H 0.0 **** 0.06
37078 H 71.62999174317817 9.768759953896648 60.51086505685879 H 0.0 **** 0.06
37079 H 73.31102422476746 9.52215442623995 61.04559548260579 H 0.0 **** 0.06
37080 H 71.96159893457097 9.097967546376822 62.1264931713651 H 0.0 **** 0.06
37081 C 41.54510032359798 38.26566904170946 33.354854782426905 C 0.0 **** -0.24
37082 H 40.90339653149552 37.903813360368815 34.15831382003774 H 0.0 **** 0.06
37083 H 41.218199059560526 39.2599441294181 33.04929732680516 H 0.0 **** 0.06
37084 H 41.48275704794884 37.5854636991061 32.50600340440151 H 0.0 **** 0.06
37085 H 42.57535578868978 38.3149353138441 33.7073306221989 H 0.0 **** 0.06
37086 C 30.8188549938248 94.67003123929874 56.50404946077583 C 0.0 **** -0.24
37087 H 31.137465968194363 94.44379604758544 57.52106683233228 H 0.0 **** 0.06
37088 H 30.80017859475035 95.75078440167005 56.361373131256045 H 0.0 **** 0.06
37089 H 29.821390328941504 94.26405466084005 56.3365712502775 H 0.0 **** 0.06
37090 H 31.516385083413013 94.22148984709948 55.797186629237416 H 0.0 **** 0.06
37091 C 72.31395084813782 91.5634538418999 3.4700932050237725 C 0.0 **** -0.24
37092 H 72.98322757669193 91.21463985009063 4.256253584702407 H 0.0 **** 0.06
37093 H 72.78421093459886 92.38740784934942 2.9318014226879825 H 0.0 **** 0.06
37094 H 71.37924447776533 91.90661375487605 3.915155063767557 H 0.0 **** 0.06
37095 H 72.10860208158168 90.74753184413942 2.7774404339779153 H 0.0 **** 0.06
37096 C 10.17766506519316 82.50904106396933 58.74349047869819 C 0.0 **** -0.24
37097 H 9.622572271038855 82.53962821524726 57.80566525579499 H 0.0 **** 0.06
37098 H 11.22702472215651 82.73394123379859 58.55219504435331 H 0.0 **** 0.06
37099 H 10.092562870619425 81.51494692920483 59.18378610707467 H 0.0 **** 0.06
37100 H 9.766278004384763 83.24745524289915 59.43247084987755 H 0.0 **** 0.06
37101 C 56.65712580747625 33.20258274291632 122.66347644960558 C 0.0 **** -0.24
37102 H 55.720709310686246 32.65106947866215 122.74020263855142 H 0.0 **** 0.06
37103 H 56.49107404383987 34.12512414289145 122.10641726895196 H 0.0 **** 0.06
37104 H 57.39650091062734 32.59232564750374 122.14563439291469 H 0.0 **** 0.06
37105 H 57.01966454998045 33.44328256418555 123.66324192517952 H 0.0 **** 0.06
37106 C 1.3002245127719902 71.87578251529362 33.075551391047526 C 0.0 **** -0.24
37107 H 0.4633340314622387 71.94967960458578 32.38167156905686 H 0.0 **** 0.06
37108 H 1.3688694584281222 72.7922855771073 33.6604852748056 H 0.0 **** 0.06
37109 H 2.224738962947896 71.73190338848093 32.51518578989825 H 0.0 **** 0.06
37110 H 1.1440832295744485 71.02795379889479 33.743053532816866 H 0.0 **** 0.06
37111 C 103.58519661723511 18.942076012595663 15.195578191621522 C 0.0 **** -0.24
37112 H 102.60391357173661 19.143775379927135 14.765864723181025 H 0.0 **** 0.06
37113 H 104.24045971721729 19.79562290783842 15.018703283372929 H 0.0 **** 0.06
37114 H 104.01046395734194 18.053438898472038 14.729847110366563 H 0.0 **** 0.06
37115 H 103.48429282718985 18.777924547707272 16.26836308292951 H 0.0 **** 0.06
37116 C 17.684366642764417 9.089609493225282 28.798054249376555 C 0.0 **** -0.24
37117 H 18.487486521283643 8.487975321411056 28.372505793092024 H 0.0 **** 0.06
37118 H 17.81571166309078 10.131668685109446 28.503106894444436 H 0.0 **** 0.06
37119 H 17.709389802743374 9.013337120637402 29.884402716935355 H 0.0 **** 0.06
37120 H 16.724596386421695 8.726356168231746 28.43114722551295 H 0.0 **** 0.06
37121 C 6.8123059681822085 115.99162252033071 13.609194343944395 C 0.0 **** -0.24
37122 H 6.1268617845326965 116.13300629570824 12.773685160690434 H 0.0 **** 0.06
37123 H 7.214611026747537 114.97889557202441 13.5812214484517 H 0.0 **** 0.06
37124 H 6.276765463180364 116.14416064183814 14.54699937360813 H 0.0 **** 0.06
37125 H 7.628243708028727 116.70986051998116 13.535272540373242 H 0.0 **** 0.06
37126 C 46.1187860372023 58.708331054993295 106.66140384382004 C 0.0 **** -0.24
37127 H 46.13844988712367 59.47595505543124 107.4353608600652 H 0.0 **** 0.06
37128 H 45.104007925075706 58.60915824347964 106.27539494361969 H 0.0 **** 0.06
37129 H 46.44124532149203 57.756635737773735 107.0849068444025 H 0.0 **** 0.06
37130 H 46.789674053360216 58.99200252355182 105.85125483877226 H 0.0 **** 0.06
37131 C 123.07891352898167 112.14653770942576 3.575730859511836 C 0.0 **** -0.24
37132 H 123.20548399327448 113.12898539861101 4.0303198501812005 H 0.0 **** 0.06
37133 H 122.79927056328943 112.26398803363134 2.5288082564065775 H 0.0 **** 0.06
37134 H 122.29595883217986 111.60135210781581 4.102826968571833 H 0.0 **** 0.06
37135 H 124.01491636691907 111.59237921024393 3.642609322448763 H 0.0 **** 0.06
37136 C 28.59938879309812 41.63728290824571 70.7104917007913 C 0.0 **** -0.24
37137 H 27.62440065862573 41.26664280048038 71.02777041759526 H 0.0 **** 0.06
37138 H 29.377649964637037 40.96193324500621 71.06554391490926 H 0.0 **** 0.06
37139 H 28.76220845176207 42.63215349435103 71.126100929897 H 0.0 **** 0.06
37140 H 28.630324094041242 41.68840915611938 69.62214211560922 H 0.0 **** 0.06
37141 C 14.605588593478927 21.828202882411688 93.19278839205546 C 0.0 **** -0.24
37142 H 13.549426668582328 21.560028194712586 93.19964382524667 H 0.0 **** 0.06
37143 H 14.785094457930114 22.61374604724071 93.92751374383012 H 0.0 **** 0.06
37144 H 14.882639611248493 22.186650067777094 92.20101871317853 H 0.0 **** 0.06
37145 H 15.204904470107039 20.953291679042593 93.44329095826303 H 0.0 **** 0.06
37146 C 117.03867725302541 44.780192999008875 86.28466668670697 C 0.0 **** -0.24
37147 H 117.40605031826601 44.439174912332845 87.25289828924008 H 0.0 **** 0.06
37148 H 116.22154835403359 45.48647989082721 86.43517567135942 H 0.0 **** 0.06
37149 H 116.68042060297475 43.92666538339438 85.71006471024745 H 0.0 **** 0.06
37150 H 117.8467897672738 45.27061895856022 85.74166552071401 H 0.0 **** 0.06
37151 C 30.380605276638846 29.121421352194602 68.01481715892498 C 0.0 **** -0.24
37152 H 29.45092810219974 29.012963288402773 67.45475823881257 H 0.0 **** 0.06
37153 H 31.22504383837557 29.076698785005306 67.32804205653275 H 0.0 **** 0.06
37154 H 30.46159714264128 28.31472630019516 68.74394140254196 H 0.0 **** 0.06
37155 H 30.38198356800524 30.080466302041543 68.53281386824709 H 0.0 **** 0.06
37156 C 27.770275431233756 104.24851954557406 98.02485128073819 C 0.0 **** -0.24
37157 H 26.978971619449425 103.51847306220051 97.84975357356095 H 0.0 **** 0.06
37158 H 28.640446690059164 103.74652190054357 98.4475296911003 H 0.0 **** 0.06
37159 H 27.414154847999214 105.00839743717063 98.72052320925496 H 0.0 **** 0.06
37160 H 28.04463735467911 104.71973429416144 97.0802810190151 H 0.0 **** 0.06
37161 C 57.04797986615837 20.62285647758486 109.55393399102914 C 0.0 **** -0.24
37162 H 57.865868216442905 19.920463593073265 109.71568567891468 H 0.0 **** 0.06
37163 H 56.23498907541861 20.11831564547174 109.03067277983942 H 0.0 **** 0.06
37164 H 57.40165443911356 21.460739252615042 108.9535837354337 H 0.0 **** 0.06
37165 H 56.68914552411387 20.989607777154333 110.51499176341223 H 0.0 **** 0.06
37166 C 48.511523045024546 37.83481207287977 120.75065160086668 C 0.0 **** -0.24
37167 H 48.73273819358127 36.83831638956383 121.1321288400973 H 0.0 **** 0.06
37168 H 48.05495715121606 37.75294885894547 119.76402059979328 H 0.0 **** 0.06
37169 H 49.435621443711966 38.40923011516753 120.6768760184366 H 0.0 **** 0.06
37170 H 47.82417875506715 38.33892772438466 121.42956979327639 H 0.0 **** 0.06
37171 C 84.08210594393015 96.50620919036345 117.78094674678242 C 0.0 **** -0.24
37172 H 83.73325192395771 97.08873432005802 116.92837003856329 H 0.0 **** 0.06
37173 H 83.7904435088742 97.00512483892453 118.70518584571042 H 0.0 **** 0.06
37174 H 85.16807612618567 96.41963843739128 117.7404993202518 H 0.0 **** 0.06
37175 H 83.63682494306778 95.51250035230808 117.74758186828824 H 0.0 **** 0.06
37176 C 37.44054985050778 110.3419561450535 59.41744102621371 C 0.0 **** -0.24
37177 H 36.51455233250573 109.82222417457336 59.664335753911644 H 0.0 **** 0.06
37178 H 37.25291539721988 111.05924857557105 58.61809027784234 H 0.0 **** 0.06
37179 H 38.18556246509897 109.61745194163406 59.08799969497046 H 0.0 **** 0.06
37180 H 37.8080820930185 110.86671483225102 60.29954822082233 H 0.0 **** 0.06
37181 C 119.07048855208843 105.05649474333275 92.18695299627204 C 0.0 **** -0.24
37182 H 119.56622922739733 106.00901604996868 92.3713492931202 H 0.0 **** 0.06
37183 H 118.34116060006713 105.17631744769885 91.3859155713346 H 0.0 **** 0.06
37184 H 118.5637167038024 104.72942584828728 93.09487421493272 H 0.0 **** 0.06
37185 H 119.81075381090025 104.31212650069583 91.89608378712474 H 0.0 **** 0.06
37186 C 7.726370720417833 111.83961560934483 33.49649211847097 C 0.0 **** -0.24
37187 H 6.848709848356663 112.14650556658403 32.926912714757805 H 0.0 **** 0.06
37188 H 7.66817612292499 110.77086505359264 33.70553854985431 H 0.0 **** 0.06
37189 H 7.760896807657616 112.39255647351877 34.436182044090344 H 0.0 **** 0.06
37190 H 8.626207700206749 112.04931178981784 32.918808302724756 H 0.0 **** 0.06
37191 C 81.49834075695273 106.66508338153538 74.18365864606234 C 0.0 **** -0.24
37192 H 81.27611183198589 106.20987979170911 73.21816771419856 H 0.0 **** 0.06
37193 H 81.35637661240048 107.74346722342503 74.11748355249374 H 0.0 **** 0.06
37194 H 82.53116741711285 106.44983359901616 74.4587174786919 H 0.0 **** 0.06
37195 H 80.82818091652138 106.25552156533442 74.94016817729836 H 0.0 **** 0.06
37196 C 113.1355161317224 115.3495109582878 102.44369832978343 C 0.0 **** -0.24
37197 H 112.17329395482597 115.16667170285663 102.92015703750525 H 0.0 **** 0.06
37198 H 113.47744320930028 116.35491404418816 102.69039499108214 H 0.0 **** 0.06
37199 H 113.03017695590933 115.25623155809768 101.36259919287544 H 0.0 **** 0.06
37200 H 113.86260731507986 114.61982835086158 102.80249005654537 H 0.0 **** 0.06
37201 C 120.57370471469822 39.97803842085591 112.5661386752439 C 0.0 **** -0.24
37202 H 120.8365207254865 39.171601918745694 113.25042048527578 H 0.0 **** 0.06
37203 H 119.57981136944252 39.79901245906342 112.15719567550136 H 0.0 **** 0.06
37204 H 121.30000757312263 40.01470509082458 111.75395307955287 H 0.0 **** 0.06
37205 H 120.58085626278671 40.926352105703586 113.10264279307637 H 0.0 **** 0.06
37206 C 69.19319470500398 50.28562333945504 8.244448282216581 C 0.0 **** -0.24
37207 H 68.66738283134683 50.558923230904924 7.3297348092936545 H 0.0 **** 0.06
37208 H 70.19063958334533 50.72429296380864 8.235318916869232 H 0.0 **** 0.06
37209 H 69.27277040931662 49.20015900363427 8.307919664373031 H 0.0 **** 0.06
37210 H 68.63907286512426 50.65995443710972 9.10616691984518 H 0.0 **** 0.06
37211 C 89.11821638832926 47.24303275402809 5.067114391088381 C 0.0 **** -0.24
37212 H 89.67189313140516 47.60656274351406 5.933457152442543 H 0.0 **** 0.06
37213 H 89.04584743764771 46.15635564524234 5.112987138794267 H 0.0 **** 0.06
37214 H 89.6385341395859 47.53602138727172 4.155713953047126 H 0.0 **** 0.06
37215 H 88.11697357199657 47.67509948266644 5.069334584004622 H 0.0 **** 0.06
37216 C 65.76944319399436 28.6669144269966 65.20284527578852 C 0.0 **** -0.24
37217 H 66.51256757236806 28.70466869849001 64.40619134100493 H 0.0 **** 0.06
37218 H 64.81395477758625 29.0325038997129 64.82489950820369 H 0.0 **** 0.06
37219 H 66.0953037149188 29.292655633477786 66.0339082015536 H 0.0 **** 0.06
37220 H 65.6560037824137 27.638269342043046 65.54548577418583 H 0.0 **** 0.06
37221 C 82.35361547473994 31.936590877946514 122.3070674209897 C 0.0 **** -0.24
37222 H 83.39411938452315 31.643625689989918 122.44332329282662 H 0.0 **** 0.06
37223 H 82.21919028696075 32.34524940475588 121.30508796290994 H 0.0 **** 0.06
37224 H 82.08925425513544 32.69266020967453 123.04593207923193 H 0.0 **** 0.06
37225 H 81.71214077855811 31.06473947620684 122.43296031299408 H 0.0 **** 0.06
37226 C 17.701880037497006 109.58019817847776 17.63925026810464 C 0.0 **** -0.24
37227 H 17.191196084765124 109.93449835810941 16.743825234530455 H 0.0 **** 0.06
37228 H 18.76006176074742 109.4377496195554 17.42107480902357 H 0.0 **** 0.06
37229 H 17.264175242557755 108.63251254391156 17.95552110831443 H 0.0 **** 0.06
37230 H 17.589860500435293 110.31550332225106 18.434917648192176 H 0.0 **** 0.06
37231 C 82.15817294447207 123.19202205112231 41.43112306155243 C 0.0 **** -0.24
37232 H 82.68368081867197 123.57139850203822 42.30770090157486 H 0.0 **** 0.06
37233 H 82.87865970376635 122.76731219433611 40.73129727246928 H 0.0 **** 0.06
37234 H 81.62149188701282 124.00947948175832 40.94831920250806 H 0.0 **** 0.06
37235 H 81.45016982882727 122.42259494853755 41.737075940758075 H 0.0 **** 0.06
37236 C 21.10048283825074 56.67593783979822 86.92003576389465 C 0.0 **** -0.24
37237 H 20.142412842657166 56.291321728580215 86.56916102477705 H 0.0 **** 0.06
37238 H 20.99208024020453 57.04401192043272 87.94016126761716 H 0.0 **** 0.06
37239 H 21.424817227128244 57.48948979002239 86.27114892002501 H 0.0 **** 0.06
37240 H 21.841353022448743 55.87678359582793 86.89800017344615 H 0.0 **** 0.06
37241 C 84.93891398427473 22.258683419259995 15.06414254370739 C 0.0 **** -0.24
37242 H 84.85935261291218 22.81604588839187 15.998129609069252 H 0.0 **** 0.06
37243 H 84.22073021595597 21.438619167498246 15.068433953097212 H 0.0 **** 0.06
37244 H 85.9479312127504 21.858403780203915 14.965688765090988 H 0.0 **** 0.06
37245 H 84.72814286230908 22.923032506987823 14.22601454729569 H 0.0 **** 0.06
37246 C 16.21946883549907 116.89363410780871 120.16925403517638 C 0.0 **** -0.24
37247 H 17.091258711156627 117.04827029565888 120.80478196873534 H 0.0 **** 0.06
37248 H 16.474760119397274 117.13280995328267 119.13692512380132 H 0.0 **** 0.06
37249 H 15.407885647852424 117.5415830570864 120.502739690552 H 0.0 **** 0.06
37250 H 15.902562508376661 115.85297873024965 120.23497656672657 H 0.0 **** 0.06
37251 C 56.14547705897439 110.83277456950442 116.56254411140941 C 0.0 **** -0.24
37252 H 56.401143500115325 110.48253028104098 115.56232196777194 H 0.0 **** 0.06
37253 H 56.98654952440404 110.6577577934889 117.23450469171655 H 0.0 **** 0.06
37254 H 55.27188262477068 110.29182995981289 116.92499183195076 H 0.0 **** 0.06
37255 H 55.92416367771989 111.9001052813557 116.52774016485478 H 0.0 **** 0.06
37256 C 43.99121270740258 119.9618180055811 34.654824060095656 C 0.0 **** -0.24
37257 H 42.90249633826488 119.99466839846485 34.63654423469228 H 0.0 **** 0.06
37258 H 44.387366704281675 120.97315295467654 34.561478695013975 H 0.0 **** 0.06
37259 H 44.3506812716396 119.35287941667177 33.82396608560095 H 0.0 **** 0.06
37260 H 44.32622430818223 119.52573506522168 35.59603318288797 H 0.0 **** 0.06
37261 C 25.061700050397533 64.20662975998144 75.1823164833302 C 0.0 **** -0.24
37262 H 26.038694759678293 64.26639379589973 75.66123011861075 H 0.0 **** 0.06
37263 H 25.187907854175407 63.93669110690557 74.13358894535295 H 0.0 **** 0.06
37264 H 24.564435604215234 65.1743075813204 75.25067161999007 H 0.0 **** 0.06
37265 H 24.457267956859113 63.450455587787886 75.68279240329565 H 0.0 **** 0.06
37266 C 118.52943675437433 18.733181424576003 105.55447783894367 C 0.0 **** -0.24
37267 H 119.07961390695806 19.55370038750297 105.0940406216449 H 0.0 **** 0.06
37268 H 118.25948891136528 18.00389182353328 104.7909842089226 H 0.0 **** 0.06
37269 H 117.62516580175844 19.121231004406553 106.02433348259486 H 0.0 **** 0.06
37270 H 119.15416420843161 18.25547228059233 106.30958532785826 H 0.0 **** 0.06
37271 C 98.35892090420677 96.03139066552383 38.2060988454204 C 0.0 **** -0.24
37272 H 98.17150933087211 96.48230765972428 39.18082829373452 H 0.0 **** 0.06
37273 H 99.35590691766018 96.311655435733 37.86243565222151 H 0.0 **** 0.06
37274 H 97.61517414236556 96.3865651831921 37.492403144344166 H 0.0 **** 0.06
37275 H 98.29475851788837 94.94655300369858 38.289687935565865 H 0.0 **** 0.06
37276 C 88.61890746573766 81.85533420492793 113.48694745823767 C 0.0 **** -0.24
37277 H 88.86795391948397 81.13714361709586 112.70626646920206 H 0.0 **** 0.06
37278 H 89.5281271101606 82.34733124436124 113.83205069533395 H 0.0 **** 0.06
37279 H 88.14688923525296 81.33630636643282 114.3212199588908 H 0.0 **** 0.06
37280 H 87.93144509892409 82.60111161256062 113.08778801602077 H 0.0 **** 0.06
37281 C 75.71515253636093 80.40852203199175 63.766669680299515 C 0.0 **** -0.24
37282 H 76.69936214239539 80.08145208108004 63.43258232590239 H 0.0 **** 0.06
37283 H 75.75580723605438 80.65703359572494 64.82750988606284 H 0.0 **** 0.06
37284 H 74.99305951209413 79.60659175574389 63.608817615145085 H 0.0 **** 0.06
37285 H 75.41248155434033 81.28746025700809 63.19853455826359 H 0.0 **** 0.06
37286 C 5.70942798792905 98.28334858366969 87.10655670104848 C 0.0 **** -0.24
37287 H 5.563804411484703 97.44248993604839 86.42726935360098 H 0.0 **** 0.06
37288 H 4.888604186726273 98.31622212548416 87.82401081354251 H 0.0 **** 0.06
37289 H 5.7318425580197925 99.21109076373438 86.53542737804177 H 0.0 **** 0.06
37290 H 6.652672821490533 98.16074077753075 87.63839990162009 H 0.0 **** 0.06
37291 C 41.002739382269795 105.00992650502042 117.36961939453278 C 0.0 **** -0.24
37292 H 41.14905426151438 103.93773853276673 117.50533116849702 H 0.0 **** 0.06
37293 H 41.972307481141144 105.5076104056761 117.34159856244042 H 0.0 **** 0.06
37294 H 40.414708978898375 105.40433894893717 118.19852034927042 H 0.0 **** 0.06
37295 H 40.47555634490723 105.18788966588738 116.43288047127935 H 0.0 **** 0.06
37296 C 0.3296536798016625 116.60592322604106 70.46207139046258 C 0.0 **** -0.24
37297 H 0.9524378979332315 116.32778004937566 69.61167212300836 H 0.0 **** 0.06
37298 H 0.8068731344371027 116.2766805125781 71.38503267304363 H 0.0 **** 0.06
37299 H -0.6468984898421848 116.13229298918219 70.3679602971305 H 0.0 **** 0.06
37300 H 0.20672934944885313 117.68903600025605 70.48304913042199 H 0.0 **** 0.06
37301 C 61.03105583040866 115.22098621958239 69.09624775489846 C 0.0 **** -0.24
37302 H 61.47504761748503 116.17564450626588 68.8165899621274 H 0.0 **** 0.06
37303 H 60.15609741279059 115.0314370783122 68.47422395051368 H 0.0 **** 0.06
37304 H 60.73169080091226 115.25320029440107 70.14363856885642 H 0.0 **** 0.06
37305 H 61.76063963990998 114.42431226680654 68.95067719222884 H 0.0 **** 0.06
37306 C 39.81715165584876 72.33645392834663 43.37119626513521 C 0.0 **** -0.24
37307 H 39.88101988068928 73.19503851340176 42.70254233355416 H 0.0 **** 0.06
37308 H 39.27116357646355 71.53196705210291 42.8772978433276 H 0.0 **** 0.06
37309 H 39.29395666415837 72.62526574823323 44.283149376887366 H 0.0 **** 0.06
37310 H 40.82123265375179 71.99526559168882 43.62056447549787 H 0.0 **** 0.06
37311 C 98.0234758977841 17.683967478689226 70.36930978045339 C 0.0 **** -0.24
37312 H 98.37664958036248 17.49492442379585 71.3836883349046 H 0.0 **** 0.06
37313 H 96.93878781586068 17.791313905618722 70.37667305908775 H 0.0 **** 0.06
37314 H 98.30317589211643 16.849176269081738 69.72595194403706 H 0.0 **** 0.06
37315 H 98.47803376311344 18.600735467133404 69.99276848040631 H 0.0 **** 0.06
37316 C 9.073642981524586 74.7251737571168 23.132462891406647 C 0.0 **** -0.24
37317 H 10.065681800253259 74.29708372101362 22.989258143389577 H 0.0 **** 0.06
37318 H 8.329654363485673 74.07907544335393 22.666932452410776 H 0.0 **** 0.06
37319 H 9.036015476091933 75.71355278183012 22.673162506271126 H 0.0 **** 0.06
37320 H 8.865911231542754 74.81100413051007 24.198559659707882 H 0.0 **** 0.06
37321 C 112.59591374631808 19.829174060146045 8.834117848557668 C 0.0 **** -0.24
37322 H 113.34658096518285 19.636392541207215 8.067902016830999 H 0.0 **** 0.06
37323 H 111.64752509981473 19.382360619665974 8.533910435385152 H 0.0 **** 0.06
37324 H 112.46843046908158 20.905419822296153 8.955013828374604 H 0.0 **** 0.06
37325 H 112.92084489339362 19.392431149983054 9.778687650337758 H 0.0 **** 0.06
37326 C 30.462856528690395 54.33967771610702 86.83612975534474 C 0.0 **** -0.24
37327 H 30.714649633411284 54.7719191255873 87.80531053347507 H 0.0 **** 0.06
37328 H 30.945748967774477 54.914345136265766 86.04568560021845 H 0.0 **** 0.06
37329 H 29.381965773837294 54.36648423908666 86.69768373962059 H 0.0 **** 0.06
37330 H 30.80884434961132 53.30696876580966 86.79882920360613 H 0.0 **** 0.06
37331 C 107.191506922878 115.25831969806123 77.9949588676666 C 0.0 **** -0.24
37332 H 108.17519174035087 115.14090272253574 77.53920981842667 H 0.0 **** 0.06
37333 H 107.29946361857822 115.31635851785697 79.07813778404821 H 0.0 **** 0.06
37334 H 106.56787755542777 114.40184457474378 77.73699272471742 H 0.0 **** 0.06
37335 H 106.72595026097716 116.17194518914768 77.62540486688488 H 0.0 **** 0.06
37336 C 111.07668377573597 60.47102449312919 31.85669461242813 C 0.0 **** -0.24
37337 H 111.13615026503298 59.71929944288141 32.643435907262266 H 0.0 **** 0.06
37338 H 110.74445701681046 60.00127590962626 30.930716007935594 H 0.0 **** 0.06
37339 H 112.05888521023662 60.91718853604425 31.706220010009517 H 0.0 **** 0.06
37340 H 110.36608533078942 61.244278172876136 32.14706550414626 H 0.0 **** 0.06
37341 C 43.687966282667105 101.23420409352076 0.016983005490281755 C 0.0 **** -0.24
37342 H 42.900720150742956 101.98300567662596 -0.06917041691293946 H 0.0 **** 0.06
37343 H 43.2718224803439 100.24626958974443 -0.18071238718611937 H 0.0 **** 0.06
37344 H 44.10446931764797 101.25855425433963 1.024096708916968 H 0.0 **** 0.06
37345 H 44.47452934702376 101.44953384898321 -0.7070538805104896 H 0.0 **** 0.06
37346 C 29.953284709284503 58.68100673206584 123.15357988320746 C 0.0 **** -0.24
37347 H 30.372167649805306 58.856102591586705 124.14510612617435 H 0.0 **** 0.06
37348 H 30.14228087493683 57.648690855431596 122.85773172753241 H 0.0 **** 0.06
37349 H 30.420385321131505 59.35603386317689 122.43784879459467 H 0.0 **** 0.06
37350 H 28.879069188793437 58.86184515171885 123.17638642030656 H 0.0 **** 0.06
37351 C 86.38631649944776 21.243271713670225 96.61064942476776 C 0.0 **** -0.24
37352 H 85.65145586737171 21.91149382971261 96.16101869335326 H 0.0 **** 0.06
37353 H 87.37085338343931 21.45220134832011 96.19196189505327 H 0.0 **** 0.06
37354 H 86.11307703235465 20.209310344352303 96.39898740471385 H 0.0 **** 0.06
37355 H 86.40796144531484 21.399787643783057 97.68834180898537 H 0.0 **** 0.06
37356 C 35.81825197993574 39.15027339232495 122.9915683591148 C 0.0 **** -0.24
37357 H 35.62934971413983 39.60074250383167 122.01719511664129 H 0.0 **** 0.06
37358 H 34.90731470682389 38.67124964099946 123.35157707943462 H 0.0 **** 0.06
37359 H 36.12601479319101 39.92303682254885 123.69583565672683 H 0.0 **** 0.06
37360 H 36.60953559675201 38.406440487670324 122.89960889787702 H 0.0 **** 0.06
37361 C 66.5800353951448 80.47726775281217 94.51143297064675 C 0.0 **** -0.24
37362 H 67.31290977086839 80.80992121372583 95.24675164334062 H 0.0 **** 0.06
37363 H 66.10425570306352 81.34468805140153 94.05463938269578 H 0.0 **** 0.06
37364 H 65.82442603737907 79.86446003701064 95.00294381161788 H 0.0 **** 0.06
37365 H 67.0793780791683 79.8889451572208 93.74095184277905 H 0.0 **** 0.06
37366 C 3.4722073139547973 91.18268033403606 115.89622482654721 C 0.0 **** -0.24
37367 H 2.4586005218915403 91.44193882038363 115.59028852400868 H 0.0 **** 0.06
37368 H 3.4837660987299586 90.16453061424116 116.28540763224547 H 0.0 **** 0.06
37369 H 3.804906567174868 91.87197369102145 116.67202735266716 H 0.0 **** 0.06
37370 H 4.139741876283267 91.2512117975306 115.03793193206562 H 0.0 **** 0.06
37371 C 73.31442659484387 32.670660928023366 90.56578752536376 C 0.0 **** -0.24
37372 H 72.73618662619896 33.56936722361995 90.78063687940198 H 0.0 **** 0.06
37373 H 73.18327452570479 31.95255953884572 91.37597225694117 H 0.0 **** 0.06
37374 H 74.36917364659969 32.93118236316474 90.47766291404838 H 0.0 **** 0.06
37375 H 72.96932480543052 32.23123130090724 89.63062658163511 H 0.0 **** 0.06
37376 C 36.55722021498383 60.1519501858634 120.99822300408235 C 0.0 **** -0.24
37377 H 37.4294918911568 59.88536866652714 121.59467677508691 H 0.0 **** 0.06
37378 H 36.16666621111372 59.260193828540764 120.50753990948833 H 0.0 **** 0.06
37379 H 36.84295500800255 60.886027537532584 120.24559114447523 H 0.0 **** 0.06
37380 H 35.790926483830816 60.576314424713985 121.64699385915645 H 0.0 **** 0.06
37381 C 23.508133975248057 41.60860446352953 23.44887255886175 C 0.0 **** -0.24
37382 H 23.86709992233645 41.32077580906201 22.460751705619145 H 0.0 **** 0.06
37383 H 24.359526209983954 41.78475094650693 24.10680220700482 H 0.0 **** 0.06
37384 H 22.890403930341535 40.80926180786548 23.85815438688138 H 0.0 **** 0.06
37385 H 22.91660783466898 42.521384267502185 23.36847580341498 H 0.0 **** 0.06
37386 C 29.560296394620366 66.39629969470343 84.00543617938871 C 0.0 **** -0.24
37387 H 29.345980104040876 65.39750298229362 84.38612552861218 H 0.0 **** 0.06
37388 H 29.696516390534413 66.35184003981544 82.92445967211103 H 0.0 **** 0.06
37389 H 30.469836624592446 66.77574898909174 84.47194186147652 H 0.0 **** 0.06
37390 H 28.728069268159544 67.06018455663371 84.23983459466137 H 0.0 **** 0.06
37391 C 110.73982823939784 43.95609449344386 109.57371819868328 C 0.0 **** -0.24
37392 H 111.68793107810546 44.40707002456975 109.2789049644321 H 0.0 **** 0.06
37393 H 109.91628000263628 44.53958769509097 109.16222374161062 H 0.0 **** 0.06
37394 H 110.66770855118338 43.94118133023812 110.66129443181953 H 0.0 **** 0.06
37395 H 110.68970719684555 42.935916667720164 109.19295869437894 H 0.0 **** 0.06
37396 C 11.915417553843767 2.8941933549327956 86.86775127719127 C 0.0 **** -0.24
37397 H 11.892294650018385 1.8681920464667314 87.23520652699732 H 0.0 **** 0.06
37398 H 12.532327908306485 2.9442992270427197 85.97025489877092 H 0.0 **** 0.06
37399 H 12.334836920134876 3.5454400458635007 87.63448385095923 H 0.0 **** 0.06
37400 H 10.901183878719877 3.2172508229154033 86.63041670464669 H 0.0 **** 0.06
37401 C 51.66476383636312 27.491649043631526 72.95570626065239 C 0.0 **** -0.24
37402 H 51.16652378436555 26.65318269621912 73.44459362872453 H 0.0 **** 0.06
37403 H 52.49049862845868 27.836866131275144 73.57748909820583 H 0.0 **** 0.06
37404 H 50.95144608680225 28.303464269952784 72.8129353202051 H 0.0 **** 0.06
37405 H 52.04772121538363 27.170361909622443 71.98663042356986 H 0.0 **** 0.06
37406 C 62.306344325557916 29.55099981516858 27.948001065776126 C 0.0 **** -0.24
37407 H 63.137241593323324 30.24155470576099 28.092878214582683 H 0.0 **** 0.06
37408 H 61.61194663368008 29.636442306021507 28.78416562088426 H 0.0 **** 0.06
37409 H 62.687766300738076 28.530801658287658 27.894384264185113 H 0.0 **** 0.06
37410 H 61.789553479035646 29.794002793777565 27.019441701250756 H 0.0 **** 0.06
37411 C 26.775668234083952 38.05047374057972 13.687665986859145 C 0.0 **** -0.24
37412 H 25.72742006679124 37.77515592788757 13.803357748977817 H 0.0 **** 0.06
37413 H 27.299008430537768 37.26565140178795 13.139905329907634 H 0.0 **** 0.06
37414 H 27.22959607762121 38.17373166743906 14.670267447677418 H 0.0 **** 0.06
37415 H 26.84595745926501 38.98758714263906 13.134794717601267 H 0.0 **** 0.06
37416 C 109.89659634569068 10.947156530537711 110.13024028609034 C 0.0 **** -0.24
37417 H 110.70805041608429 11.674439448638566 110.11489327951281 H 0.0 **** 0.06
37418 H 110.00102112716962 10.267707343467578 109.28365063527842 H 0.0 **** 0.06
37419 H 108.9413101984457 11.467329081749313 110.0638432092708 H 0.0 **** 0.06
37420 H 109.93627057889694 10.378425811688714 111.05920962191956 H 0.0 **** 0.06
37421 C 15.75354201657607 40.71905375625627 53.00503447184485 C 0.0 **** -0.24
37422 H 14.689430508207458 40.48793473579602 52.94358140419405 H 0.0 **** 0.06
37423 H 15.979107170126998 41.13063727930269 53.988760077110214 H 0.0 **** 0.06
37424 H 16.011840669177335 41.44777209256054 52.2370500515801 H 0.0 **** 0.06
37425 H 16.331922563287073 39.807550298374224 52.85110543725091 H 0.0 **** 0.06
37426 C 12.932469593566886 95.11358883398368 97.5893099516129 C 0.0 **** -0.24
37427 H 12.090257513967558 94.50716008214381 97.25622635151299 H 0.0 **** 0.06
37428 H 12.658227153128909 96.16812255756585 97.54931674184482 H 0.0 **** 0.06
37429 H 13.788025754563765 94.9348169521198 96.93873718298937 H 0.0 **** 0.06
37430 H 13.19149946028466 94.84354679035884 98.6128799341237 H 0.0 **** 0.06
37431 C 74.98850953017623 123.85346708155612 112.13204808051452 C 0.0 **** -0.24
37432 H 74.0714351675351 123.6634045117201 112.69011489194565 H 0.0 **** 0.06
37433 H 74.74459824904784 124.35475440567602 111.19441483073393 H 0.0 **** 0.06
37434 H 75.48682179458828 122.90749455285419 111.91980865039042 H 0.0 **** 0.06
37435 H 75.64749056069252 124.48772078747406 112.7235029403196 H 0.0 **** 0.06
37436 C 68.05078625554081 120.35370328375151 58.697129660082425 C 0.0 **** -0.24
37437 H 67.56962600780541 120.87816886786393 57.87142366611303 H 0.0 **** 0.06
37438 H 69.07668746973314 120.70738068676397 58.803655448587875 H 0.0 **** 0.06
37439 H 68.0549149841473 119.28235418537594 58.49356436017345 H 0.0 **** 0.06
37440 H 67.50251706223948 120.54643253508186 59.619233249671396 H 0.0 **** 0.06
37441 C 102.3532734860533 28.903890287191338 76.59886407407521 C 0.0 **** -0.24
37442 H 102.31136831369732 28.564285043097435 77.63347941823447 H 0.0 **** 0.06
37443 H 102.67806826405953 29.944759146709337 76.57082550365236 H 0.0 **** 0.06
37444 H 101.36359254199382 28.819241145226535 76.14931998045355 H 0.0 **** 0.06
37445 H 103.05906513136262 28.287295180324996 76.04184848971201 H 0.0 **** 0.06
37446 C 104.65385970646241 46.177618144693156 72.92294359321895 C 0.0 **** -0.24
37447 H 105.09958374161994 45.8544136752879 71.98155646301913 H 0.0 **** 0.06
37448 H 103.68949056240137 45.68824486127133 73.05513508207943 H 0.0 **** 0.06
37449 H 104.51412385625201 47.259112967446725 72.90589602072703 H 0.0 **** 0.06
37450 H 105.3142701512192 45.9098751336185 73.74731510823605 H 0.0 **** 0.06
37451 C 114.74239171674657 93.00978883047802 76.08349813585896 C 0.0 **** -0.24
37452 H 115.69180630770217 92.48748818715634 75.96953485348067 H 0.0 **** 0.06
37453 H 114.91460369911835 94.0864636367177 76.05558424008726 H 0.0 **** 0.06
37454 H 114.29043218189116 92.73830709565217 77.03674672664468 H 0.0 **** 0.06
37455 H 114.07271665606817 92.72800277649361 75.27018349392691 H 0.0 **** 0.06
37456 C 9.906481057344706 92.36245764368422 6.780236453448424 C 0.0 **** -0.24
37457 H 10.300145252347903 91.8862154170005 7.678337541395592 H 0.0 **** 0.06
37458 H 10.696761232539586 92.93749790987741 6.29792573428432 H 0.0 **** 0.06
37459 H 9.086724060869997 93.02755667117975 7.052522109730518 H 0.0 **** 0.06
37460 H 9.54238859023826 91.59803380356337 6.094331550428819 H 0.0 **** 0.06
37461 C 33.61976522818824 65.78562675312729 95.92180762563048 C 0.0 **** -0.24
37462 H 33.86722213907623 66.84654377189001 95.88400723783325 H 0.0 **** 0.06
37463 H 32.642135560543494 65.62491367805113 95.46778424814411 H 0.0 **** 0.06
37464 H 33.59941700153837 65.45354139212942 96.95946746094991 H 0.0 **** 0.06
37465 H 34.372426100688216 65.21823427603336 95.3731618683445 H 0.0 **** 0.06
37466 C 15.920942075132388 21.142923085888242 38.3526313638767 C 0.0 **** -0.24
37467 H 16.048235506110217 20.075706215529664 38.53608784141653 H 0.0 **** 0.06
37468 H 16.66288047417973 21.476613126851305 37.62718731019817 H 0.0 **** 0.06
37469 H 16.051411038352455 21.689787328375573 39.28563563789493 H 0.0 **** 0.06
37470 H 14.920761421633046 21.326717354039147 37.96037248328912 H 0.0 **** 0.06
37471 C 63.73346490155893 115.57659898467631 89.32319888893713 C 0.0 **** -0.24
37472 H 63.39243147040861 116.59935052503235 89.16375870117466 H 0.0 **** 0.06
37473 H 64.06296581794231 115.46029381165698 90.35518527731892 H 0.0 **** 0.06
37474 H 64.56240464400912 115.36051493910756 88.64969739669107 H 0.0 **** 0.06
37475 H 62.913951529233145 114.88612726723079 89.12290818334347 H 0.0 **** 0.06
37476 C 56.21438526145475 11.346963965024486 99.80837618185576 C 0.0 **** -0.24
37477 H 57.232987958062864 11.020749389253126 99.59982578106427 H 0.0 **** 0.06
37478 H 55.91977711509573 11.006094686598885 100.80212213110632 H 0.0 **** 0.06
37479 H 55.53831158497452 10.925463195865973 99.06420334194992 H 0.0 **** 0.06
37480 H 56.165581147520214 12.434307942149644 99.76817860638977 H 0.0 **** 0.06
37481 C 48.06344838882555 123.81562382846195 65.53563461294675 C 0.0 **** -0.24
37482 H 47.32179433080702 123.55449660854288 64.78093830028746 H 0.0 **** 0.06
37483 H 47.81380400806037 124.78397472959745 65.96982805655375 H 0.0 **** 0.06
37484 H 49.048649934620286 123.86634939020517 65.07291818177552 H 0.0 **** 0.06
37485 H 48.0667954008712 123.0563714178308 66.31799342199801 H 0.0 **** 0.06
37486 C 57.34961900649425 14.121226005514178 10.213284749891812 C 0.0 **** -0.24
37487 H 58.001919815520836 13.248303618018685 10.199183514734003 H 0.0 **** 0.06
37488 H 57.822198981516635 14.936519578880656 9.664148753038674 H 0.0 **** 0.06
37489 H 57.17698359222979 14.42914080623888 11.243853098101809 H 0.0 **** 0.06
37490 H 56.39758484080612 13.870126384039143 9.744816312999149 H 0.0 **** 0.06
37491 C 58.40356537841109 35.34628989409478 52.11786011977608 C 0.0 **** -0.24
37492 H 59.08458379819962 36.14933727602045 52.39980075986648 H 0.0 **** 0.06
37493 H 57.85974421626561 35.63074925604411 51.216867810999474 H 0.0 **** 0.06
37494 H 57.696204951173456 35.16912115860998 52.92905631215325 H 0.0 **** 0.06
37495 H 58.973027665550674 34.43679746140367 51.927905136508286 H 0.0 **** 0.06
37496 C 32.26010449471802 104.39012041811085 4.159833960565777 C 0.0 **** -0.24
37497 H 31.476634900755073 103.70114385897708 4.475345293368093 H 0.0 **** 0.06
37498 H 31.825123053396368 105.37105060533644 3.9687821050078043 H 0.0 **** 0.06
37499 H 32.72645809745938 104.01561859819387 3.2482905219702616 H 0.0 **** 0.06
37500 H 33.010627285058426 104.47162125045672 4.945361046264338 H 0.0 **** 0.06
@<TRIPOS>BOND
1 1 2 28
2 1 3 28
3 1 4 28
4 1 5 28
5 6 7 28
6 6 8 28
7 6 9 28
8 6 10 28
9 11 12 28
10 11 13 28
11 11 14 28
12 11 15 28
13 16 17 28
14 16 18 28
15 16 19 28
16 16 20 28
17 21 22 28
18 21 23 28
19 21 24 28
20 21 25 28
21 26 27 28
22 26 28 28
23 26 29 28
24 26 30 28
25 31 32 28
26 31 33 28
27 31 34 28
28 31 35 28
29 36 37 28
30 36 38 28
31 36 39 28
32 36 40 28
33 41 42 28
34 41 43 28
35 41 44 28
36 41 45 28
37 46 47 28
38 46 48 28
39 46 49 28
40 46 50 28
41 51 52 28
42 51 53 28
43 51 54 28
44 51 55 28
45 56 57 28
46 56 58 28
47 56 59 28
48 56 60 28
49 61 62 28
50 61 63 28
51 61 64 28
52 61 65 28
53 66 67 28
54 66 68 28
55 66 69 28
56 66 70 28
57 71 72 28
58 71 73 28
59 71 74 28
60 71 75 28
61 76 77 28
62 76 78 28
63 76 79 28
64 76 80 28
65 81 82 28
66 81 83 28
67 81 84 28
68 81 85 28
69 86 87 28
70 86 88 28
71 86 89 28
72 86 90 28
73 91 92 28
74 91 93 28
75 91 94 28
76 91 95 28
77 96 97 28
78 96 98 28
79 96 99 28
80 96 100 28
81 101 102 28
82 101 103 28
83 101 104 28
84 101 105 28
85 106 107 28
86 106 108 28
87 106 109 28
88 106 110 28
89 111 112 28
90 111 113 28
91 111 114 28
92 111 115 28
93 116 117 28
94 116 118 28
95 116 119 28
96 116 120 28
97 121 122 28
98 121 123 28
99 121 124 28
100 121 125 28
101 126 127 28
102 126 128 28
103 126 129 28
104 126 130 28
105 131 132 28
106 131 133 28
107 131 134 28
108 131 135 28
109 136 137 28
110 136 138 28
111 136 139 28
112 136 140 28
113 141 142 28
114 141 143 28
115 141 144 28
116 141 145 28
117 146 147 28
118 146 148 28
119 146 149 28
120 146 150 28
121 151 152 28
122 151 153 28
123 151 154 28
124 151 155 28
125 156 157 28
126 156 158 28
127 156 159 28
128 156 160 28
129 161 162 28
130 161 163 28
131 161 164 28
132 161 165 28
133 166 167 28
134 166 168 28
135 166 169 28
136 166 170 28
137 171 172 28
138 171 173 28
139 171 174 28
140 171 175 28
141 176 177 28
142 176 178 28
143 176 179 28
144 176 180 28
145 181 182 28
146 181 183 28
147 181 184 28
148 181 185 28
149 186 187 28
150 186 188 28
151 186 189 28
152 186 190 28
153 191 192 28
154 191 193 28
155 191 194 28
156 191 195 28
157 196 197 28
158 196 198 28
159 196 199 28
160 196 200 28
161 201 202 28
162 201 203 28
163 201 204 28
164 201 205 28
165 206 207 28
166 206 208 28
167 206 209 28
168 206 210 28
169 211 212 28
170 211 213 28
171 211 214 28
172 211 215 28
173 216 217 28
174 216 218 28
175 216 219 28
176 216 220 28
177 221 222 28
178 221 223 28
179 221 224 28
180 221 225 28
181 226 227 28
182 226 228 28
183 226 229 28
184 226 230 28
185 231 232 28
186 231 233 28
187 231 234 28
188 231 235 28
189 236 237 28
190 236 238 28
191 236 239 28
192 236 240 28
193 241 242 28
194 241 243 28
195 241 244 28
196 241 245 28
197 246 247 28
198 246 248 28
199 246 249 28
200 246 250 28
201 251 252 28
202 251 253 28
203 251 254 28
204 251 255 28
205 256 257 28
206 256 258 28
207 256 259 28
208 256 260 28
209 261 262 28
210 261 263 28
211 261 264 28
212 261 265 28
213 266 267 28
214 266 268 28
215 266 269 28
216 266 270 28
217 271 272 28
218 271 273 28
219 271 274 28
220 271 275 28
221 276 277 28
222 276 278 28
223 276 279 28
224 276 280 28
225 281 282 28
226 281 283 28
227 281 284 28
228 281 285 28
229 286 287 28
230 286 288 28
231 286 289 28
232 286 290 28
233 291 292 28
234 291 293 28
235 291 294 28
236 291 295 28
237 296 297 28
238 296 298 28
239 296 299 28
240 296 300 28
241 301 302 28
242 301 303 28
243 301 304 28
244 301 305 28
245 306 307 28
246 306 308 28
247 306 309 28
248 306 310 28
249 311 312 28
250 311 313 28
251 311 314 28
252 311 315 28
253 316 317 28
254 316 318 28
255 316 319 28
256 316 320 28
257 321 322 28
258 321 323 28
259 321 324 28
260 321 325 28
261 326 327 28
262 326 328 28
263 326 329 28
264 326 330 28
265 331 332 28
266 331 333 28
267 331 334 28
268 331 335 28
269 336 337 28
270 336 338 28
271 336 339 28
272 336 340 28
273 341 342 28
274 341 343 28
275 341 344 28
276 341 345 28
277 346 347 28
278 346 348 28
279 346 349 28
280 346 350 28
281 351 352 28
282 351 353 28
283 351 354 28
284 351 355 28
285 356 357 28
286 356 358 28
287 356 359 28
288 356 360 28
289 361 362 28
290 361 363 28
291 361 364 28
292 361 365 28
293 366 367 28
294 366 368 28
295 366 369 28
296 366 370 28
297 371 372 28
298 371 373 28
299 371 374 28
300 371 375 28
301 376 377 28
302 376 378 28
303 376 379 28
304 376 380 28
305 381 382 28
306 381 383 28
307 381 384 28
308 381 385 28
309 386 387 28
310 386 388 28
311 386 389 28
312 386 390 28
313 391 392 28
314 391 393 28
315 391 394 28
316 391 395 28
317 396 397 28
318 396 398 28
319 396 399 28
320 396 400 28
321 401 402 28
322 401 403 28
323 401 404 28
324 401 405 28
325 406 407 28
326 406 408 28
327 406 409 28
328 406 410 28
329 411 412 28
330 411 413 28
331 411 414 28
332 411 415 28
333 416 417 28
334 416 418 28
335 416 419 28
336 416 420 28
337 421 422 28
338 421 423 28
339 421 424 28
340 421 425 28
341 426 427 28
342 426 428 28
343 426 429 28
344 426 430 28
345 431 432 28
346 431 433 28
347 431 434 28
348 431 435 28
349 436 437 28
350 436 438 28
351 436 439 28
352 436 440 28
353 441 442 28
354 441 443 28
355 441 444 28
356 441 445 28
357 446 447 28
358 446 448 28
359 446 449 28
360 446 450 28
361 451 452 28
362 451 453 28
363 451 454 28
364 451 455 28
365 456 457 28
366 456 458 28
367 456 459 28
368 456 460 28
369 461 462 28
370 461 463 28
371 461 464 28
372 461 465 28
373 466 467 28
374 466 468 28
375 466 469 28
376 466 470 28
377 471 472 28
378 471 473 28
379 471 474 28
380 471 475 28
381 476 477 28
382 476 478 28
383 476 479 28
384 476 480 28
385 481 482 28
386 481 483 28
387 481 484 28
388 481 485 28
389 486 487 28
390 486 488 28
391 486 489 28
392 486 490 28
393 491 492 28
394 491 493 28
395 491 494 28
396 491 495 28
397 496 497 28
398 496 498 28
399 496 499 28
400 496 500 28
401 501 502 28
402 501 503 28
403 501 504 28
404 501 505 28
405 506 507 28
406 506 508 28
407 506 509 28
408 506 510 28
409 511 512 28
410 511 513 28
411 511 514 28
412 511 515 28
413 516 517 28
414 516 518 28
415 516 519 28
416 516 520 28
417 521 522 28
418 521 523 28
419 521 524 28
420 521 525 28
421 526 527 28
422 526 528 28
423 526 529 28
424 526 530 28
425 531 532 28
426 531 533 28
427 531 534 28
428 531 535 28
429 536 537 28
430 536 538 28
431 536 539 28
432 536 540 28
433 541 542 28
434 541 543 28
435 541 544 28
436 541 545 28
437 546 547 28
438 546 548 28
439 546 549 28
440 546 550 28
441 551 552 28
442 551 553 28
443 551 554 28
444 551 555 28
445 556 557 28
446 556 558 28
447 556 559 28
448 556 560 28
449 561 562 28
450 561 563 28
451 561 564 28
452 561 565 28
453 566 567 28
454 566 568 28
455 566 569 28
456 566 570 28
457 571 572 28
458 571 573 28
459 571 574 28
460 571 575 28
461 576 577 28
462 576 578 28
463 576 579 28
464 576 580 28
465 581 582 28
466 581 583 28
467 581 584 28
468 581 585 28
469 586 587 28
470 586 588 28
471 586 589 28
472 586 590 28
473 591 592 28
474 591 593 28
475 591 594 28
476 591 595 28
477 596 597 28
478 596 598 28
479 596 599 28
480 596 600 28
481 601 602 28
482 601 603 28
483 601 604 28
484 601 605 28
485 606 607 28
486 606 608 28
487 606 609 28
488 606 610 28
489 611 612 28
490 611 613 28
491 611 614 28
492 611 615 28
493 616 617 28
494 616 618 28
495 616 619 28
496 616 620 28
497 621 622 28
498 621 623 28
499 621 624 28
500 621 625 28
501 626 627 28
502 626 628 28
503 626 629 28
504 626 630 28
505 631 632 28
506 631 633 28
507 631 634 28
508 631 635 28
509 636 637 28
510 636 638 28
511 636 639 28
512 636 640 28
513 641 642 28
514 641 643 28
515 641 644 28
516 641 645 28
517 646 647 28
518 646 648 28
519 646 649 28
520 646 650 28
521 651 652 28
522 651 653 28
523 651 654 28
524 651 655 28
525 656 657 28
526 656 658 28
527 656 659 28
528 656 660 28
529 661 662 28
530 661 663 28
531 661 664 28
532 661 665 28
533 666 667 28
534 666 668 28
535 666 669 28
536 666 670 28
537 671 672 28
538 671 673 28
539 671 674 28
540 671 675 28
541 676 677 28
542 676 678 28
543 676 679 28
544 676 680 28
545 681 682 28
546 681 683 28
547 681 684 28
548 681 685 28
549 686 687 28
550 686 688 28
551 686 689 28
552 686 690 28
553 691 692 28
554 691 693 28
555 691 694 28
556 691 695 28
557 696 697 28
558 696 698 28
559 696 699 28
560 696 700 28
561 701 702 28
562 701 703 28
563 701 704 28
564 701 705 28
565 706 707 28
566 706 708 28
567 706 709 28
568 706 710 28
569 711 712 28
570 711 713 28
571 711 714 28
572 711 715 28
573 716 717 28
574 716 718 28
575 716 719 28
576 716 720 28
577 721 722 28
578 721 723 28
579 721 724 28
580 721 725 28
581 726 727 28
582 726 728 28
583 726 729 28
584 726 730 28
585 731 732 28
586 731 733 28
587 731 734 28
588 731 735 28
589 736 737 28
590 736 738 28
591 736 739 28
592 736 740 28
593 741 742 28
594 741 743 28
595 741 744 28
596 741 745 28
597 746 747 28
598 746 748 28
599 746 749 28
600 746 750 28
601 751 752 28
602 751 753 28
603 751 754 28
604 751 755 28
605 756 757 28
606 756 758 28
607 756 759 28
608 756 760 28
609 761 762 28
610 761 763 28
611 761 764 28
612 761 765 28
613 766 767 28
614 766 768 28
615 766 769 28
616 766 770 28
617 771 772 28
618 771 773 28
619 771 774 28
620 771 775 28
621 776 777 28
622 776 778 28
623 776 779 28
624 776 780 28
625 781 782 28
626 781 783 28
627 781 784 28
628 781 785 28
629 786 787 28
630 786 788 28
631 786 789 28
632 786 790 28
633 791 792 28
634 791 793 28
635 791 794 28
636 791 795 28
637 796 797 28
638 796 798 28
639 796 799 28
640 796 800 28
641 801 802 28
642 801 803 28
643 801 804 28
644 801 805 28
645 806 807 28
646 806 808 28
647 806 809 28
648 806 810 28
649 811 812 28
650 811 813 28
651 811 814 28
652 811 815 28
653 816 817 28
654 816 818 28
655 816 819 28
656 816 820 28
657 821 822 28
658 821 823 28
659 821 824 28
660 821 825 28
661 826 827 28
662 826 828 28
663 826 829 28
664 826 830 28
665 831 832 28
666 831 833 28
667 831 834 28
668 831 835 28
669 836 837 28
670 836 838 28
671 836 839 28
672 836 840 28
673 841 842 28
674 841 843 28
675 841 844 28
676 841 845 28
677 846 847 28
678 846 848 28
679 846 849 28
680 846 850 28
681 851 852 28
682 851 853 28
683 851 854 28
684 851 855 28
685 856 857 28
686 856 858 28
687 856 859 28
688 856 860 28
689 861 862 28
690 861 863 28
691 861 864 28
692 861 865 28
693 866 867 28
694 866 868 28
695 866 869 28
696 866 870 28
697 871 872 28
698 871 873 28
699 871 874 28
700 871 875 28
701 876 877 28
702 876 878 28
703 876 879 28
704 876 880 28
705 881 882 28
706 881 883 28
707 881 884 28
708 881 885 28
709 886 887 28
710 886 888 28
711 886 889 28
712 886 890 28
713 891 892 28
714 891 893 28
715 891 894 28
716 891 895 28
717 896 897 28
718 896 898 28
719 896 899 28
720 896 900 28
721 901 902 28
722 901 903 28
723 901 904 28
724 901 905 28
725 906 907 28
726 906 908 28
727 906 909 28
728 906 910 28
729 911 912 28
730 911 913 28
731 911 914 28
732 911 915 28
733 916 917 28
734 916 918 28
735 916 919 28
736 916 920 28
737 921 922 28
738 921 923 28
739 921 924 28
740 921 925 28
741 926 927 28
742 926 928 28
743 926 929 28
744 926 930 28
745 931 932 28
746 931 933 28
747 931 934 28
748 931 935 28
749 936 937 28
750 936 938 28
751 936 939 28
752 936 940 28
753 941 942 28
754 941 943 28
755 941 944 28
756 941 945 28
757 946 947 28
758 946 948 28
759 946 949 28
760 946 950 28
761 951 952 28
762 951 953 28
763 951 954 28
764 951 955 28
765 956 957 28
766 956 958 28
767 956 959 28
768 956 960 28
769 961 962 28
770 961 963 28
771 961 964 28
772 961 965 28
773 966 967 28
774 966 968 28
775 966 969 28
776 966 970 28
777 971 972 28
778 971 973 28
779 971 974 28
780 971 975 28
781 976 977 28
782 976 978 28
783 976 979 28
784 976 980 28
785 981 982 28
786 981 983 28
787 981 984 28
788 981 985 28
789 986 987 28
790 986 988 28
791 986 989 28
792 986 990 28
793 991 992 28
794 991 993 28
795 991 994 28
796 991 995 28
797 996 997 28
798 996 998 28
799 996 999 28
800 996 1000 28
801 1001 1002 28
802 1001 1003 28
803 1001 1004 28
804 1001 1005 28
805 1006 1007 28
806 1006 1008 28
807 1006 1009 28
808 1006 1010 28
809 1011 1012 28
810 1011 1013 28
811 1011 1014 28
812 1011 1015 28
813 1016 1017 28
814 1016 1018 28
815 1016 1019 28
816 1016 1020 28
817 1021 1022 28
818 1021 1023 28
819 1021 1024 28
820 1021 1025 28
821 1026 1027 28
822 1026 1028 28
823 1026 1029 28
824 1026 1030 28
825 1031 1032 28
826 1031 1033 28
827 1031 1034 28
828 1031 1035 28
829 1036 1037 28
830 1036 1038 28
831 1036 1039 28
832 1036 1040 28
833 1041 1042 28
834 1041 1043 28
835 1041 1044 28
836 1041 1045 28
837 1046 1047 28
838 1046 1048 28
839 1046 1049 28
840 1046 1050 28
841 1051 1052 28
842 1051 1053 28
843 1051 1054 28
844 1051 1055 28
845 1056 1057 28
846 1056 1058 28
847 1056 1059 28
848 1056 1060 28
849 1061 1062 28
850 1061 1063 28
851 1061 1064 28
852 1061 1065 28
853 1066 1067 28
854 1066 1068 28
855 1066 1069 28
856 1066 1070 28
857 1071 1072 28
858 1071 1073 28
859 1071 1074 28
860 1071 1075 28
861 1076 1077 28
862 1076 1078 28
863 1076 1079 28
864 1076 1080 28
865 1081 1082 28
866 1081 1083 28
867 1081 1084 28
868 1081 1085 28
869 1086 1087 28
870 1086 1088 28
871 1086 1089 28
872 1086 1090 28
873 1091 1092 28
874 1091 1093 28
875 1091 1094 28
876 1091 1095 28
877 1096 1097 28
878 1096 1098 28
879 1096 1099 28
880 1096 1100 28
881 1101 1102 28
882 1101 1103 28
883 1101 1104 28
884 1101 1105 28
885 1106 1107 28
886 1106 1108 28
887 1106 1109 28
888 1106 1110 28
889 1111 1112 28
890 1111 1113 28
891 1111 1114 28
892 1111 1115 28
893 1116 1117 28
894 1116 1118 28
895 1116 1119 28
896 1116 1120 28
897 1121 1122 28
898 1121 1123 28
899 1121 1124 28
900 1121 1125 28
901 1126 1127 28
902 1126 1128 28
903 1126 1129 28
904 1126 1130 28
905 1131 1132 28
906 1131 1133 28
907 1131 1134 28
908 1131 1135 28
909 1136 1137 28
910 1136 1138 28
911 1136 1139 28
912 1136 1140 28
913 1141 1142 28
914 1141 1143 28
915 1141 1144 28
916 1141 1145 28
917 1146 1147 28
918 1146 1148 28
919 1146 1149 28
920 1146 1150 28
921 1151 1152 28
922 1151 1153 28
923 1151 1154 28
924 1151 1155 28
925 1156 1157 28
926 1156 1158 28
927 1156 1159 28
928 1156 1160 28
929 1161 1162 28
930 1161 1163 28
931 1161 1164 28
932 1161 1165 28
933 1166 1167 28
934 1166 1168 28
935 1166 1169 28
936 1166 1170 28
937 1171 1172 28
938 1171 1173 28
939 1171 1174 28
940 1171 1175 28
941 1176 1177 28
942 1176 1178 28
943 1176 1179 28
944 1176 1180 28
945 1181 1182 28
946 1181 1183 28
947 1181 1184 28
948 1181 1185 28
949 1186 1187 28
950 1186 1188 28
951 1186 1189 28
952 1186 1190 28
953 1191 1192 28
954 1191 1193 28
955 1191 1194 28
956 1191 1195 28
957 1196 1197 28
958 1196 1198 28
959 1196 1199 28
960 1196 1200 28
961 1201 1202 28
962 1201 1203 28
963 1201 1204 28
964 1201 1205 28
965 1206 1207 28
966 1206 1208 28
967 1206 1209 28
968 1206 1210 28
969 1211 1212 28
970 1211 1213 28
971 1211 1214 28
972 1211 1215 28
973 1216 1217 28
974 1216 1218 28
975 1216 1219 28
976 1216 1220 28
977 1221 1222 28
978 1221 1223 28
979 1221 1224 28
980 1221 1225 28
981 1226 1227 28
982 1226 1228 28
983 1226 1229 28
984 1226 1230 28
985 1231 1232 28
986 1231 1233 28
987 1231 1234 28
988 1231 1235 28
989 1236 1237 28
990 1236 1238 28
991 1236 1239 28
992 1236 1240 28
993 1241 1242 28
994 1241 1243 28
995 1241 1244 28
996 1241 1245 28
997 1246 1247 28
998 1246 1248 28
999 1246 1249 28
1000 1246 1250 28
1001 1251 1252 28
1002 1251 1253 28
1003 1251 1254 28
1004 1251 1255 28
1005 1256 1257 28
1006 1256 1258 28
1007 1256 1259 28
1008 1256 1260 28
1009 1261 1262 28
1010 1261 1263 28
1011 1261 1264 28
1012 1261 1265 28
1013 1266 1267 28
1014 1266 1268 28
1015 1266 1269 28
1016 1266 1270 28
1017 1271 1272 28
1018 1271 1273 28
1019 1271 1274 28
1020 1271 1275 28
1021 1276 1277 28
1022 1276 1278 28
1023 1276 1279 28
1024 1276 1280 28
1025 1281 1282 28
1026 1281 1283 28
1027 1281 1284 28
1028 1281 1285 28
1029 1286 1287 28
1030 1286 1288 28
1031 1286 1289 28
1032 1286 1290 28
1033 1291 1292 28
1034 1291 1293 28
1035 1291 1294 28
1036 1291 1295 28
1037 1296 1297 28
1038 1296 1298 28
1039 1296 1299 28
1040 1296 1300 28
1041 1301 1302 28
1042 1301 1303 28
1043 1301 1304 28
1044 1301 1305 28
1045 1306 1307 28
1046 1306 1308 28
1047 1306 1309 28
1048 1306 1310 28
1049 1311 1312 28
1050 1311 1313 28
1051 1311 1314 28
1052 1311 1315 28
1053 1316 1317 28
1054 1316 1318 28
1055 1316 1319 28
1056 1316 1320 28
1057 1321 1322 28
1058 1321 1323 28
1059 1321 1324 28
1060 1321 1325 28
1061 1326 1327 28
1062 1326 1328 28
1063 1326 1329 28
1064 1326 1330 28
1065 1331 1332 28
1066 1331 1333 28
1067 1331 1334 28
1068 1331 1335 28
1069 1336 1337 28
1070 1336 1338 28
1071 1336 1339 28
1072 1336 1340 28
1073 1341 1342 28
1074 1341 1343 28
1075 1341 1344 28
1076 1341 1345 28
1077 1346 1347 28
1078 1346 1348 28
1079 1346 1349 28
1080 1346 1350 28
1081 1351 1352 28
1082 1351 1353 28
1083 1351 1354 28
1084 1351 1355 28
1085 1356 1357 28
1086 1356 1358 28
1087 1356 1359 28
1088 1356 1360 28
1089 1361 1362 28
1090 1361 1363 28
1091 1361 1364 28
1092 1361 1365 28
1093 1366 1367 28
1094 1366 1368 28
1095 1366 1369 28
1096 1366 1370 28
1097 1371 1372 28
1098 1371 1373 28
1099 1371 1374 28
1100 1371 1375 28
1101 1376 1377 28
1102 1376 1378 28
1103 1376 1379 28
1104 1376 1380 28
1105 1381 1382 28
1106 1381 1383 28
1107 1381 1384 28
1108 1381 1385 28
1109 1386 1387 28
1110 1386 1388 28
1111 1386 1389 28
1112 1386 1390 28
1113 1391 1392 28
1114 1391 1393 28
1115 1391 1394 28
1116 1391 1395 28
1117 1396 1397 28
1118 1396 1398 28
1119 1396 1399 28
1120 1396 1400 28
1121 1401 1402 28
1122 1401 1403 28
1123 1401 1404 28
1124 1401 1405 28
1125 1406 1407 28
1126 1406 1408 28
1127 1406 1409 28
1128 1406 1410 28
1129 1411 1412 28
1130 1411 1413 28
1131 1411 1414 28
1132 1411 1415 28
1133 1416 1417 28
1134 1416 1418 28
1135 1416 1419 28
1136 1416 1420 28
1137 1421 1422 28
1138 1421 1423 28
1139 1421 1424 28
1140 1421 1425 28
1141 1426 1427 28
1142 1426 1428 28
1143 1426 1429 28
1144 1426 1430 28
1145 1431 1432 28
1146 1431 1433 28
1147 1431 1434 28
1148 1431 1435 28
1149 1436 1437 28
1150 1436 1438 28
1151 1436 1439 28
1152 1436 1440 28
1153 1441 1442 28
1154 1441 1443 28
1155 1441 1444 28
1156 1441 1445 28
1157 1446 1447 28
1158 1446 1448 28
1159 1446 1449 28
1160 1446 1450 28
1161 1451 1452 28
1162 1451 1453 28
1163 1451 1454 28
1164 1451 1455 28
1165 1456 1457 28
1166 1456 1458 28
1167 1456 1459 28
1168 1456 1460 28
1169 1461 1462 28
1170 1461 1463 28
1171 1461 1464 28
1172 1461 1465 28
1173 1466 1467 28
1174 1466 1468 28
1175 1466 1469 28
1176 1466 1470 28
1177 1471 1472 28
1178 1471 1473 28
1179 1471 1474 28
1180 1471 1475 28
1181 1476 1477 28
1182 1476 1478 28
1183 1476 1479 28
1184 1476 1480 28
1185 1481 1482 28
1186 1481 1483 28
1187 1481 1484 28
1188 1481 1485 28
1189 1486 1487 28
1190 1486 1488 28
1191 1486 1489 28
1192 1486 1490 28
1193 1491 1492 28
1194 1491 1493 28
1195 1491 1494 28
1196 1491 1495 28
1197 1496 1497 28
1198 1496 1498 28
1199 1496 1499 28
1200 1496 1500 28
1201 1501 1502 28
1202 1501 1503 28
1203 1501 1504 28
1204 1501 1505 28
1205 1506 1507 28
1206 1506 1508 28
1207 1506 1509 28
1208 1506 1510 28
1209 1511 1512 28
1210 1511 1513 28
1211 1511 1514 28
1212 1511 1515 28
1213 1516 1517 28
1214 1516 1518 28
1215 1516 1519 28
1216 1516 1520 28
1217 1521 1522 28
1218 1521 1523 28
1219 1521 1524 28
1220 1521 1525 28
1221 1526 1527 28
1222 1526 1528 28
1223 1526 1529 28
1224 1526 1530 28
1225 1531 1532 28
1226 1531 1533 28
1227 1531 1534 28
1228 1531 1535 28
1229 1536 1537 28
1230 1536 1538 28
1231 1536 1539 28
1232 1536 1540 28
1233 1541 1542 28
1234 1541 1543 28
1235 1541 1544 28
1236 1541 1545 28
1237 1546 1547 28
1238 1546 1548 28
1239 1546 1549 28
1240 1546 1550 28
1241 1551 1552 28
1242 1551 1553 28
1243 1551 1554 28
1244 1551 1555 28
1245 1556 1557 28
1246 1556 1558 28
1247 1556 1559 28
1248 1556 1560 28
1249 1561 1562 28
1250 1561 1563 28
1251 1561 1564 28
1252 1561 1565 28
1253 1566 1567 28
1254 1566 1568 28
1255 1566 1569 28
1256 1566 1570 28
1257 1571 1572 28
1258 1571 1573 28
1259 1571 1574 28
1260 1571 1575 28
1261 1576 1577 28
1262 1576 1578 28
1263 1576 1579 28
1264 1576 1580 28
1265 1581 1582 28
1266 1581 1583 28
1267 1581 1584 28
1268 1581 1585 28
1269 1586 1587 28
1270 1586 1588 28
1271 1586 1589 28
1272 1586 1590 28
1273 1591 1592 28
1274 1591 1593 28
1275 1591 1594 28
1276 1591 1595 28
1277 1596 1597 28
1278 1596 1598 28
1279 1596 1599 28
1280 1596 1600 28
1281 1601 1602 28
1282 1601 1603 28
1283 1601 1604 28
1284 1601 1605 28
1285 1606 1607 28
1286 1606 1608 28
1287 1606 1609 28
1288 1606 1610 28
1289 1611 1612 28
1290 1611 1613 28
1291 1611 1614 28
1292 1611 1615 28
1293 1616 1617 28
1294 1616 1618 28
1295 1616 1619 28
1296 1616 1620 28
1297 1621 1622 28
1298 1621 1623 28
1299 1621 1624 28
1300 1621 1625 28
1301 1626 1627 28
1302 1626 1628 28
1303 1626 1629 28
1304 1626 1630 28
1305 1631 1632 28
1306 1631 1633 28
1307 1631 1634 28
1308 1631 1635 28
1309 1636 1637 28
1310 1636 1638 28
1311 1636 1639 28
1312 1636 1640 28
1313 1641 1642 28
1314 1641 1643 28
1315 1641 1644 28
1316 1641 1645 28
1317 1646 1647 28
1318 1646 1648 28
1319 1646 1649 28
1320 1646 1650 28
1321 1651 1652 28
1322 1651 1653 28
1323 1651 1654 28
1324 1651 1655 28
1325 1656 1657 28
1326 1656 1658 28
1327 1656 1659 28
1328 1656 1660 28
1329 1661 1662 28
1330 1661 1663 28
1331 1661 1664 28
1332 1661 1665 28
1333 1666 1667 28
1334 1666 1668 28
1335 1666 1669 28
1336 1666 1670 28
1337 1671 1672 28
1338 1671 1673 28
1339 1671 1674 28
1340 1671 1675 28
1341 1676 1677 28
1342 1676 1678 28
1343 1676 1679 28
1344 1676 1680 28
1345 1681 1682 28
1346 1681 1683 28
1347 1681 1684 28
1348 1681 1685 28
1349 1686 1687 28
1350 1686 1688 28
1351 1686 1689 28
1352 1686 1690 28
1353 1691 1692 28
1354 1691 1693 28
1355 1691 1694 28
1356 1691 1695 28
1357 1696 1697 28
1358 1696 1698 28
1359 1696 1699 28
1360 1696 1700 28
1361 1701 1702 28
1362 1701 1703 28
1363 1701 1704 28
1364 1701 1705 28
1365 1706 1707 28
1366 1706 1708 28
1367 1706 1709 28
1368 1706 1710 28
1369 1711 1712 28
1370 1711 1713 28
1371 1711 1714 28
1372 1711 1715 28
1373 1716 1717 28
1374 1716 1718 28
1375 1716 1719 28
1376 1716 1720 28
1377 1721 1722 28
1378 1721 1723 28
1379 1721 1724 28
1380 1721 1725 28
1381 1726 1727 28
1382 1726 1728 28
1383 1726 1729 28
1384 1726 1730 28
1385 1731 1732 28
1386 1731 1733 28
1387 1731 1734 28
1388 1731 1735 28
1389 1736 1737 28
1390 1736 1738 28
1391 1736 1739 28
1392 1736 1740 28
1393 1741 1742 28
1394 1741 1743 28
1395 1741 1744 28
1396 1741 1745 28
1397 1746 1747 28
1398 1746 1748 28
1399 1746 1749 28
1400 1746 1750 28
1401 1751 1752 28
1402 1751 1753 28
1403 1751 1754 28
1404 1751 1755 28
1405 1756 1757 28
1406 1756 1758 28
1407 1756 1759 28
1408 1756 1760 28
1409 1761 1762 28
1410 1761 1763 28
1411 1761 1764 28
1412 1761 1765 28
1413 1766 1767 28
1414 1766 1768 28
1415 1766 1769 28
1416 1766 1770 28
1417 1771 1772 28
1418 1771 1773 28
1419 1771 1774 28
1420 1771 1775 28
1421 1776 1777 28
1422 1776 1778 28
1423 1776 1779 28
1424 1776 1780 28
1425 1781 1782 28
1426 1781 1783 28
1427 1781 1784 28
1428 1781 1785 28
1429 1786 1787 28
1430 1786 1788 28
1431 1786 1789 28
1432 1786 1790 28
1433 1791 1792 28
1434 1791 1793 28
1435 1791 1794 28
1436 1791 1795 28
1437 1796 1797 28
1438 1796 1798 28
1439 1796 1799 28
1440 1796 1800 28
1441 1801 1802 28
1442 1801 1803 28
1443 1801 1804 28
1444 1801 1805 28
1445 1806 1807 28
1446 1806 1808 28
1447 1806 1809 28
1448 1806 1810 28
1449 1811 1812 28
1450 1811 1813 28
1451 1811 1814 28
1452 1811 1815 28
1453 1816 1817 28
1454 1816 1818 28
1455 1816 1819 28
1456 1816 1820 28
1457 1821 1822 28
1458 1821 1823 28
1459 1821 1824 28
1460 1821 1825 28
1461 1826 1827 28
1462 1826 1828 28
1463 1826 1829 28
1464 1826 1830 28
1465 1831 1832 28
1466 1831 1833 28
1467 1831 1834 28
1468 1831 1835 28
1469 1836 1837 28
1470 1836 1838 28
1471 1836 1839 28
1472 1836 1840 28
1473 1841 1842 28
1474 1841 1843 28
1475 1841 1844 28
1476 1841 1845 28
1477 1846 1847 28
1478 1846 1848 28
1479 1846 1849 28
1480 1846 1850 28
1481 1851 1852 28
1482 1851 1853 28
1483 1851 1854 28
1484 1851 1855 28
1485 1856 1857 28
1486 1856 1858 28
1487 1856 1859 28
1488 1856 1860 28
1489 1861 1862 28
1490 1861 1863 28
1491 1861 1864 28
1492 1861 1865 28
1493 1866 1867 28
1494 1866 1868 28
1495 1866 1869 28
1496 1866 1870 28
1497 1871 1872 28
1498 1871 1873 28
1499 1871 1874 28
1500 1871 1875 28
1501 1876 1877 28
1502 1876 1878 28
1503 1876 1879 28
1504 1876 1880 28
1505 1881 1882 28
1506 1881 1883 28
1507 1881 1884 28
1508 1881 1885 28
1509 1886 1887 28
1510 1886 1888 28
1511 1886 1889 28
1512 1886 1890 28
1513 1891 1892 28
1514 1891 1893 28
1515 1891 1894 28
1516 1891 1895 28
1517 1896 1897 28
1518 1896 1898 28
1519 1896 1899 28
1520 1896 1900 28
1521 1901 1902 28
1522 1901 1903 28
1523 1901 1904 28
1524 1901 1905 28
1525 1906 1907 28
1526 1906 1908 28
1527 1906 1909 28
1528 1906 1910 28
1529 1911 1912 28
1530 1911 1913 28
1531 1911 1914 28
1532 1911 1915 28
1533 1916 1917 28
1534 1916 1918 28
1535 1916 1919 28
1536 1916 1920 28
1537 1921 1922 28
1538 1921 1923 28
1539 1921 1924 28
1540 1921 1925 28
1541 1926 1927 28
1542 1926 1928 28
1543 1926 1929 28
1544 1926 1930 28
1545 1931 1932 28
1546 1931 1933 28
1547 1931 1934 28
1548 1931 1935 28
1549 1936 1937 28
1550 1936 1938 28
1551 1936 1939 28
1552 1936 1940 28
1553 1941 1942 28
1554 1941 1943 28
1555 1941 1944 28
1556 1941 1945 28
1557 1946 1947 28
1558 1946 1948 28
1559 1946 1949 28
1560 1946 1950 28
1561 1951 1952 28
1562 1951 1953 28
1563 1951 1954 28
1564 1951 1955 28
1565 1956 1957 28
1566 1956 1958 28
1567 1956 1959 28
1568 1956 1960 28
1569 1961 1962 28
1570 1961 1963 28
1571 1961 1964 28
1572 1961 1965 28
1573 1966 1967 28
1574 1966 1968 28
1575 1966 1969 28
1576 1966 1970 28
1577 1971 1972 28
1578 1971 1973 28
1579 1971 1974 28
1580 1971 1975 28
1581 1976 1977 28
1582 1976 1978 28
1583 1976 1979 28
1584 1976 1980 28
1585 1981 1982 28
1586 1981 1983 28
1587 1981 1984 28
1588 1981 1985 28
1589 1986 1987 28
1590 1986 1988 28
1591 1986 1989 28
1592 1986 1990 28
1593 1991 1992 28
1594 1991 1993 28
1595 1991 1994 28
1596 1991 1995 28
1597 1996 1997 28
1598 1996 1998 28
1599 1996 1999 28
1600 1996 2000 28
1601 2001 2002 28
1602 2001 2003 28
1603 2001 2004 28
1604 2001 2005 28
1605 2006 2007 28
1606 2006 2008 28
1607 2006 2009 28
1608 2006 2010 28
1609 2011 2012 28
1610 2011 2013 28
1611 2011 2014 28
1612 2011 2015 28
1613 2016 2017 28
1614 2016 2018 28
1615 2016 2019 28
1616 2016 2020 28
1617 2021 2022 28
1618 2021 2023 28
1619 2021 2024 28
1620 2021 2025 28
1621 2026 2027 28
1622 2026 2028 28
1623 2026 2029 28
1624 2026 2030 28
1625 2031 2032 28
1626 2031 2033 28
1627 2031 2034 28
1628 2031 2035 28
1629 2036 2037 28
1630 2036 2038 28
1631 2036 2039 28
1632 2036 2040 28
1633 2041 2042 28
1634 2041 2043 28
1635 2041 2044 28
1636 2041 2045 28
1637 2046 2047 28
1638 2046 2048 28
1639 2046 2049 28
1640 2046 2050 28
1641 2051 2052 28
1642 2051 2053 28
1643 2051 2054 28
1644 2051 2055 28
1645 2056 2057 28
1646 2056 2058 28
1647 2056 2059 28
1648 2056 2060 28
1649 2061 2062 28
1650 2061 2063 28
1651 2061 2064 28
1652 2061 2065 28
1653 2066 2067 28
1654 2066 2068 28
1655 2066 2069 28
1656 2066 2070 28
1657 2071 2072 28
1658 2071 2073 28
1659 2071 2074 28
1660 2071 2075 28
1661 2076 2077 28
1662 2076 2078 28
1663 2076 2079 28
1664 2076 2080 28
1665 2081 2082 28
1666 2081 2083 28
1667 2081 2084 28
1668 2081 2085 28
1669 2086 2087 28
1670 2086 2088 28
1671 2086 2089 28
1672 2086 2090 28
1673 2091 2092 28
1674 2091 2093 28
1675 2091 2094 28
1676 2091 2095 28
1677 2096 2097 28
1678 2096 2098 28
1679 2096 2099 28
1680 2096 2100 28
1681 2101 2102 28
1682 2101 2103 28
1683 2101 2104 28
1684 2101 2105 28
1685 2106 2107 28
1686 2106 2108 28
1687 2106 2109 28
1688 2106 2110 28
1689 2111 2112 28
1690 2111 2113 28
1691 2111 2114 28
1692 2111 2115 28
1693 2116 2117 28
1694 2116 2118 28
1695 2116 2119 28
1696 2116 2120 28
1697 2121 2122 28
1698 2121 2123 28
1699 2121 2124 28
1700 2121 2125 28
1701 2126 2127 28
1702 2126 2128 28
1703 2126 2129 28
1704 2126 2130 28
1705 2131 2132 28
1706 2131 2133 28
1707 2131 2134 28
1708 2131 2135 28
1709 2136 2137 28
1710 2136 2138 28
1711 2136 2139 28
1712 2136 2140 28
1713 2141 2142 28
1714 2141 2143 28
1715 2141 2144 28
1716 2141 2145 28
1717 2146 2147 28
1718 2146 2148 28
1719 2146 2149 28
1720 2146 2150 28
1721 2151 2152 28
1722 2151 2153 28
1723 2151 2154 28
1724 2151 2155 28
1725 2156 2157 28
1726 2156 2158 28
1727 2156 2159 28
1728 2156 2160 28
1729 2161 2162 28
1730 2161 2163 28
1731 2161 2164 28
1732 2161 2165 28
1733 2166 2167 28
1734 2166 2168 28
1735 2166 2169 28
1736 2166 2170 28
1737 2171 2172 28
1738 2171 2173 28
1739 2171 2174 28
1740 2171 2175 28
1741 2176 2177 28
1742 2176 2178 28
1743 2176 2179 28
1744 2176 2180 28
1745 2181 2182 28
1746 2181 2183 28
1747 2181 2184 28
1748 2181 2185 28
1749 2186 2187 28
1750 2186 2188 28
1751 2186 2189 28
1752 2186 2190 28
1753 2191 2192 28
1754 2191 2193 28
1755 2191 2194 28
1756 2191 2195 28
1757 2196 2197 28
1758 2196 2198 28
1759 2196 2199 28
1760 2196 2200 28
1761 2201 2202 28
1762 2201 2203 28
1763 2201 2204 28
1764 2201 2205 28
1765 2206 2207 28
1766 2206 2208 28
1767 2206 2209 28
1768 2206 2210 28
1769 2211 2212 28
1770 2211 2213 28
1771 2211 2214 28
1772 2211 2215 28
1773 2216 2217 28
1774 2216 2218 28
1775 2216 2219 28
1776 2216 2220 28
1777 2221 2222 28
1778 2221 2223 28
1779 2221 2224 28
1780 2221 2225 28
1781 2226 2227 28
1782 2226 2228 28
1783 2226 2229 28
1784 2226 2230 28
1785 2231 2232 28
1786 2231 2233 28
1787 2231 2234 28
1788 2231 2235 28
1789 2236 2237 28
1790 2236 2238 28
1791 2236 2239 28
1792 2236 2240 28
1793 2241 2242 28
1794 2241 2243 28
1795 2241 2244 28
1796 2241 2245 28
1797 2246 2247 28
1798 2246 2248 28
1799 2246 2249 28
1800 2246 2250 28
1801 2251 2252 28
1802 2251 2253 28
1803 2251 2254 28
1804 2251 2255 28
1805 2256 2257 28
1806 2256 2258 28
1807 2256 2259 28
1808 2256 2260 28
1809 2261 2262 28
1810 2261 2263 28
1811 2261 2264 28
1812 2261 2265 28
1813 2266 2267 28
1814 2266 2268 28
1815 2266 2269 28
1816 2266 2270 28
1817 2271 2272 28
1818 2271 2273 28
1819 2271 2274 28
1820 2271 2275 28
1821 2276 2277 28
1822 2276 2278 28
1823 2276 2279 28
1824 2276 2280 28
1825 2281 2282 28
1826 2281 2283 28
1827 2281 2284 28
1828 2281 2285 28
1829 2286 2287 28
1830 2286 2288 28
1831 2286 2289 28
1832 2286 2290 28
1833 2291 2292 28
1834 2291 2293 28
1835 2291 2294 28
1836 2291 2295 28
1837 2296 2297 28
1838 2296 2298 28
1839 2296 2299 28
1840 2296 2300 28
1841 2301 2302 28
1842 2301 2303 28
1843 2301 2304 28
1844 2301 2305 28
1845 2306 2307 28
1846 2306 2308 28
1847 2306 2309 28
1848 2306 2310 28
1849 2311 2312 28
1850 2311 2313 28
1851 2311 2314 28
1852 2311 2315 28
1853 2316 2317 28
1854 2316 2318 28
1855 2316 2319 28
1856 2316 2320 28
1857 2321 2322 28
1858 2321 2323 28
1859 2321 2324 28
1860 2321 2325 28
1861 2326 2327 28
1862 2326 2328 28
1863 2326 2329 28
1864 2326 2330 28
1865 2331 2332 28
1866 2331 2333 28
1867 2331 2334 28
1868 2331 2335 28
1869 2336 2337 28
1870 2336 2338 28
1871 2336 2339 28
1872 2336 2340 28
1873 2341 2342 28
1874 2341 2343 28
1875 2341 2344 28
1876 2341 2345 28
1877 2346 2347 28
1878 2346 2348 28
1879 2346 2349 28
1880 2346 2350 28
1881 2351 2352 28
1882 2351 2353 28
1883 2351 2354 28
1884 2351 2355 28
1885 2356 2357 28
1886 2356 2358 28
1887 2356 2359 28
1888 2356 2360 28
1889 2361 2362 28
1890 2361 2363 28
1891 2361 2364 28
1892 2361 2365 28
1893 2366 2367 28
1894 2366 2368 28
1895 2366 2369 28
1896 2366 2370 28
1897 2371 2372 28
1898 2371 2373 28
1899 2371 2374 28
1900 2371 2375 28
1901 2376 2377 28
1902 2376 2378 28
1903 2376 2379 28
1904 2376 2380 28
1905 2381 2382 28
1906 2381 2383 28
1907 2381 2384 28
1908 2381 2385 28
1909 2386 2387 28
1910 2386 2388 28
1911 2386 2389 28
1912 2386 2390 28
1913 2391 2392 28
1914 2391 2393 28
1915 2391 2394 28
1916 2391 2395 28
1917 2396 2397 28
1918 2396 2398 28
1919 2396 2399 28
1920 2396 2400 28
1921 2401 2402 28
1922 2401 2403 28
1923 2401 2404 28
1924 2401 2405 28
1925 2406 2407 28
1926 2406 2408 28
1927 2406 2409 28
1928 2406 2410 28
1929 2411 2412 28
1930 2411 2413 28
1931 2411 2414 28
1932 2411 2415 28
1933 2416 2417 28
1934 2416 2418 28
1935 2416 2419 28
1936 2416 2420 28
1937 2421 2422 28
1938 2421 2423 28
1939 2421 2424 28
1940 2421 2425 28
1941 2426 2427 28
1942 2426 2428 28
1943 2426 2429 28
1944 2426 2430 28
1945 2431 2432 28
1946 2431 2433 28
1947 2431 2434 28
1948 2431 2435 28
1949 2436 2437 28
1950 2436 2438 28
1951 2436 2439 28
1952 2436 2440 28
1953 2441 2442 28
1954 2441 2443 28
1955 2441 2444 28
1956 2441 2445 28
1957 2446 2447 28
1958 2446 2448 28
1959 2446 2449 28
1960 2446 2450 28
1961 2451 2452 28
1962 2451 2453 28
1963 2451 2454 28
1964 2451 2455 28
1965 2456 2457 28
1966 2456 2458 28
1967 2456 2459 28
1968 2456 2460 28
1969 2461 2462 28
1970 2461 2463 28
1971 2461 2464 28
1972 2461 2465 28
1973 2466 2467 28
1974 2466 2468 28
1975 2466 2469 28
1976 2466 2470 28
1977 2471 2472 28
1978 2471 2473 28
1979 2471 2474 28
1980 2471 2475 28
1981 2476 2477 28
1982 2476 2478 28
1983 2476 2479 28
1984 2476 2480 28
1985 2481 2482 28
1986 2481 2483 28
1987 2481 2484 28
1988 2481 2485 28
1989 2486 2487 28
1990 2486 2488 28
1991 2486 2489 28
1992 2486 2490 28
1993 2491 2492 28
1994 2491 2493 28
1995 2491 2494 28
1996 2491 2495 28
1997 2496 2497 28
1998 2496 2498 28
1999 2496 2499 28
2000 2496 2500 28
2001 2501 2502 28
2002 2501 2503 28
2003 2501 2504 28
2004 2501 2505 28
2005 2506 2507 28
2006 2506 2508 28
2007 2506 2509 28
2008 2506 2510 28
2009 2511 2512 28
2010 2511 2513 28
2011 2511 2514 28
2012 2511 2515 28
2013 2516 2517 28
2014 2516 2518 28
2015 2516 2519 28
2016 2516 2520 28
2017 2521 2522 28
2018 2521 2523 28
2019 2521 2524 28
2020 2521 2525 28
2021 2526 2527 28
2022 2526 2528 28
2023 2526 2529 28
2024 2526 2530 28
2025 2531 2532 28
2026 2531 2533 28
2027 2531 2534 28
2028 2531 2535 28
2029 2536 2537 28
2030 2536 2538 28
2031 2536 2539 28
2032 2536 2540 28
2033 2541 2542 28
2034 2541 2543 28
2035 2541 2544 28
2036 2541 2545 28
2037 2546 2547 28
2038 2546 2548 28
2039 2546 2549 28
2040 2546 2550 28
2041 2551 2552 28
2042 2551 2553 28
2043 2551 2554 28
2044 2551 2555 28
2045 2556 2557 28
2046 2556 2558 28
2047 2556 2559 28
2048 2556 2560 28
2049 2561 2562 28
2050 2561 2563 28
2051 2561 2564 28
2052 2561 2565 28
2053 2566 2567 28
2054 2566 2568 28
2055 2566 2569 28
2056 2566 2570 28
2057 2571 2572 28
2058 2571 2573 28
2059 2571 2574 28
2060 2571 2575 28
2061 2576 2577 28
2062 2576 2578 28
2063 2576 2579 28
2064 2576 2580 28
2065 2581 2582 28
2066 2581 2583 28
2067 2581 2584 28
2068 2581 2585 28
2069 2586 2587 28
2070 2586 2588 28
2071 2586 2589 28
2072 2586 2590 28
2073 2591 2592 28
2074 2591 2593 28
2075 2591 2594 28
2076 2591 2595 28
2077 2596 2597 28
2078 2596 2598 28
2079 2596 2599 28
2080 2596 2600 28
2081 2601 2602 28
2082 2601 2603 28
2083 2601 2604 28
2084 2601 2605 28
2085 2606 2607 28
2086 2606 2608 28
2087 2606 2609 28
2088 2606 2610 28
2089 2611 2612 28
2090 2611 2613 28
2091 2611 2614 28
2092 2611 2615 28
2093 2616 2617 28
2094 2616 2618 28
2095 2616 2619 28
2096 2616 2620 28
2097 2621 2622 28
2098 2621 2623 28
2099 2621 2624 28
2100 2621 2625 28
2101 2626 2627 28
2102 2626 2628 28
2103 2626 2629 28
2104 2626 2630 28
2105 2631 2632 28
2106 2631 2633 28
2107 2631 2634 28
2108 2631 2635 28
2109 2636 2637 28
2110 2636 2638 28
2111 2636 2639 28
2112 2636 2640 28
2113 2641 2642 28
2114 2641 2643 28
2115 2641 2644 28
2116 2641 2645 28
2117 2646 2647 28
2118 2646 2648 28
2119 2646 2649 28
2120 2646 2650 28
2121 2651 2652 28
2122 2651 2653 28
2123 2651 2654 28
2124 2651 2655 28
2125 2656 2657 28
2126 2656 2658 28
2127 2656 2659 28
2128 2656 2660 28
2129 2661 2662 28
2130 2661 2663 28
2131 2661 2664 28
2132 2661 2665 28
2133 2666 2667 28
2134 2666 2668 28
2135 2666 2669 28
2136 2666 2670 28
2137 2671 2672 28
2138 2671 2673 28
2139 2671 2674 28
2140 2671 2675 28
2141 2676 2677 28
2142 2676 2678 28
2143 2676 2679 28
2144 2676 2680 28
2145 2681 2682 28
2146 2681 2683 28
2147 2681 2684 28
2148 2681 2685 28
2149 2686 2687 28
2150 2686 2688 28
2151 2686 2689 28
2152 2686 2690 28
2153 2691 2692 28
2154 2691 2693 28
2155 2691 2694 28
2156 2691 2695 28
2157 2696 2697 28
2158 2696 2698 28
2159 2696 2699 28
2160 2696 2700 28
2161 2701 2702 28
2162 2701 2703 28
2163 2701 2704 28
2164 2701 2705 28
2165 2706 2707 28
2166 2706 2708 28
2167 2706 2709 28
2168 2706 2710 28
2169 2711 2712 28
2170 2711 2713 28
2171 2711 2714 28
2172 2711 2715 28
2173 2716 2717 28
2174 2716 2718 28
2175 2716 2719 28
2176 2716 2720 28
2177 2721 2722 28
2178 2721 2723 28
2179 2721 2724 28
2180 2721 2725 28
2181 2726 2727 28
2182 2726 2728 28
2183 2726 2729 28
2184 2726 2730 28
2185 2731 2732 28
2186 2731 2733 28
2187 2731 2734 28
2188 2731 2735 28
2189 2736 2737 28
2190 2736 2738 28
2191 2736 2739 28
2192 2736 2740 28
2193 2741 2742 28
2194 2741 2743 28
2195 2741 2744 28
2196 2741 2745 28
2197 2746 2747 28
2198 2746 2748 28
2199 2746 2749 28
2200 2746 2750 28
2201 2751 2752 28
2202 2751 2753 28
2203 2751 2754 28
2204 2751 2755 28
2205 2756 2757 28
2206 2756 2758 28
2207 2756 2759 28
2208 2756 2760 28
2209 2761 2762 28
2210 2761 2763 28
2211 2761 2764 28
2212 2761 2765 28
2213 2766 2767 28
2214 2766 2768 28
2215 2766 2769 28
2216 2766 2770 28
2217 2771 2772 28
2218 2771 2773 28
2219 2771 2774 28
2220 2771 2775 28
2221 2776 2777 28
2222 2776 2778 28
2223 2776 2779 28
2224 2776 2780 28
2225 2781 2782 28
2226 2781 2783 28
2227 2781 2784 28
2228 2781 2785 28
2229 2786 2787 28
2230 2786 2788 28
2231 2786 2789 28
2232 2786 2790 28
2233 2791 2792 28
2234 2791 2793 28
2235 2791 2794 28
2236 2791 2795 28
2237 2796 2797 28
2238 2796 2798 28
2239 2796 2799 28
2240 2796 2800 28
2241 2801 2802 28
2242 2801 2803 28
2243 2801 2804 28
2244 2801 2805 28
2245 2806 2807 28
2246 2806 2808 28
2247 2806 2809 28
2248 2806 2810 28
2249 2811 2812 28
2250 2811 2813 28
2251 2811 2814 28
2252 2811 2815 28
2253 2816 2817 28
2254 2816 2818 28
2255 2816 2819 28
2256 2816 2820 28
2257 2821 2822 28
2258 2821 2823 28
2259 2821 2824 28
2260 2821 2825 28
2261 2826 2827 28
2262 2826 2828 28
2263 2826 2829 28
2264 2826 2830 28
2265 2831 2832 28
2266 2831 2833 28
2267 2831 2834 28
2268 2831 2835 28
2269 2836 2837 28
2270 2836 2838 28
2271 2836 2839 28
2272 2836 2840 28
2273 2841 2842 28
2274 2841 2843 28
2275 2841 2844 28
2276 2841 2845 28
2277 2846 2847 28
2278 2846 2848 28
2279 2846 2849 28
2280 2846 2850 28
2281 2851 2852 28
2282 2851 2853 28
2283 2851 2854 28
2284 2851 2855 28
2285 2856 2857 28
2286 2856 2858 28
2287 2856 2859 28
2288 2856 2860 28
2289 2861 2862 28
2290 2861 2863 28
2291 2861 2864 28
2292 2861 2865 28
2293 2866 2867 28
2294 2866 2868 28
2295 2866 2869 28
2296 2866 2870 28
2297 2871 2872 28
2298 2871 2873 28
2299 2871 2874 28
2300 2871 2875 28
2301 2876 2877 28
2302 2876 2878 28
2303 2876 2879 28
2304 2876 2880 28
2305 2881 2882 28
2306 2881 2883 28
2307 2881 2884 28
2308 2881 2885 28
2309 2886 2887 28
2310 2886 2888 28
2311 2886 2889 28
2312 2886 2890 28
2313 2891 2892 28
2314 2891 2893 28
2315 2891 2894 28
2316 2891 2895 28
2317 2896 2897 28
2318 2896 2898 28
2319 2896 2899 28
2320 2896 2900 28
2321 2901 2902 28
2322 2901 2903 28
2323 2901 2904 28
2324 2901 2905 28
2325 2906 2907 28
2326 2906 2908 28
2327 2906 2909 28
2328 2906 2910 28
2329 2911 2912 28
2330 2911 2913 28
2331 2911 2914 28
2332 2911 2915 28
2333 2916 2917 28
2334 2916 2918 28
2335 2916 2919 28
2336 2916 2920 28
2337 2921 2922 28
2338 2921 2923 28
2339 2921 2924 28
2340 2921 2925 28
2341 2926 2927 28
2342 2926 2928 28
2343 2926 2929 28
2344 2926 2930 28
2345 2931 2932 28
2346 2931 2933 28
2347 2931 2934 28
2348 2931 2935 28
2349 2936 2937 28
2350 2936 2938 28
2351 2936 2939 28
2352 2936 2940 28
2353 2941 2942 28
2354 2941 2943 28
2355 2941 2944 28
2356 2941 2945 28
2357 2946 2947 28
2358 2946 2948 28
2359 2946 2949 28
2360 2946 2950 28
2361 2951 2952 28
2362 2951 2953 28
2363 2951 2954 28
2364 2951 2955 28
2365 2956 2957 28
2366 2956 2958 28
2367 2956 2959 28
2368 2956 2960 28
2369 2961 2962 28
2370 2961 2963 28
2371 2961 2964 28
2372 2961 2965 28
2373 2966 2967 28
2374 2966 2968 28
2375 2966 2969 28
2376 2966 2970 28
2377 2971 2972 28
2378 2971 2973 28
2379 2971 2974 28
2380 2971 2975 28
2381 2976 2977 28
2382 2976 2978 28
2383 2976 2979 28
2384 2976 2980 28
2385 2981 2982 28
2386 2981 2983 28
2387 2981 2984 28
2388 2981 2985 28
2389 2986 2987 28
2390 2986 2988 28
2391 2986 2989 28
2392 2986 2990 28
2393 2991 2992 28
2394 2991 2993 28
2395 2991 2994 28
2396 2991 2995 28
2397 2996 2997 28
2398 2996 2998 28
2399 2996 2999 28
2400 2996 3000 28
2401 3001 3002 28
2402 3001 3003 28
2403 3001 3004 28
2404 3001 3005 28
2405 3006 3007 28
2406 3006 3008 28
2407 3006 3009 28
2408 3006 3010 28
2409 3011 3012 28
2410 3011 3013 28
2411 3011 3014 28
2412 3011 3015 28
2413 3016 3017 28
2414 3016 3018 28
2415 3016 3019 28
2416 3016 3020 28
2417 3021 3022 28
2418 3021 3023 28
2419 3021 3024 28
2420 3021 3025 28
2421 3026 3027 28
2422 3026 3028 28
2423 3026 3029 28
2424 3026 3030 28
2425 3031 3032 28
2426 3031 3033 28
2427 3031 3034 28
2428 3031 3035 28
2429 3036 3037 28
2430 3036 3038 28
2431 3036 3039 28
2432 3036 3040 28
2433 3041 3042 28
2434 3041 3043 28
2435 3041 3044 28
2436 3041 3045 28
2437 3046 3047 28
2438 3046 3048 28
2439 3046 3049 28
2440 3046 3050 28
2441 3051 3052 28
2442 3051 3053 28
2443 3051 3054 28
2444 3051 3055 28
2445 3056 3057 28
2446 3056 3058 28
2447 3056 3059 28
2448 3056 3060 28
2449 3061 3062 28
2450 3061 3063 28
2451 3061 3064 28
2452 3061 3065 28
2453 3066 3067 28
2454 3066 3068 28
2455 3066 3069 28
2456 3066 3070 28
2457 3071 3072 28
2458 3071 3073 28
2459 3071 3074 28
2460 3071 3075 28
2461 3076 3077 28
2462 3076 3078 28
2463 3076 3079 28
2464 3076 3080 28
2465 3081 3082 28
2466 3081 3083 28
2467 3081 3084 28
2468 3081 3085 28
2469 3086 3087 28
2470 3086 3088 28
2471 3086 3089 28
2472 3086 3090 28
2473 3091 3092 28
2474 3091 3093 28
2475 3091 3094 28
2476 3091 3095 28
2477 3096 3097 28
2478 3096 3098 28
2479 3096 3099 28
2480 3096 3100 28
2481 3101 3102 28
2482 3101 3103 28
2483 3101 3104 28
2484 3101 3105 28
2485 3106 3107 28
2486 3106 3108 28
2487 3106 3109 28
2488 3106 3110 28
2489 3111 3112 28
2490 3111 3113 28
2491 3111 3114 28
2492 3111 3115 28
2493 3116 3117 28
2494 3116 3118 28
2495 3116 3119 28
2496 3116 3120 28
2497 3121 3122 28
2498 3121 3123 28
2499 3121 3124 28
2500 3121 3125 28
2501 3126 3127 28
2502 3126 3128 28
2503 3126 3129 28
2504 3126 3130 28
2505 3131 3132 28
2506 3131 3133 28
2507 3131 3134 28
2508 3131 3135 28
2509 3136 3137 28
2510 3136 3138 28
2511 3136 3139 28
2512 3136 3140 28
2513 3141 3142 28
2514 3141 3143 28
2515 3141 3144 28
2516 3141 3145 28
2517 3146 3147 28
2518 3146 3148 28
2519 3146 3149 28
2520 3146 3150 28
2521 3151 3152 28
2522 3151 3153 28
2523 3151 3154 28
2524 3151 3155 28
2525 3156 3157 28
2526 3156 3158 28
2527 3156 3159 28
2528 3156 3160 28
2529 3161 3162 28
2530 3161 3163 28
2531 3161 3164 28
2532 3161 3165 28
2533 3166 3167 28
2534 3166 3168 28
2535 3166 3169 28
2536 3166 3170 28
2537 3171 3172 28
2538 3171 3173 28
2539 3171 3174 28
2540 3171 3175 28
2541 3176 3177 28
2542 3176 3178 28
2543 3176 3179 28
2544 3176 3180 28
2545 3181 3182 28
2546 3181 3183 28
2547 3181 3184 28
2548 3181 3185 28
2549 3186 3187 28
2550 3186 3188 28
2551 3186 3189 28
2552 3186 3190 28
2553 3191 3192 28
2554 3191 3193 28
2555 3191 3194 28
2556 3191 3195 28
2557 3196 3197 28
2558 3196 3198 28
2559 3196 3199 28
2560 3196 3200 28
2561 3201 3202 28
2562 3201 3203 28
2563 3201 3204 28
2564 3201 3205 28
2565 3206 3207 28
2566 3206 3208 28
2567 3206 3209 28
2568 3206 3210 28
2569 3211 3212 28
2570 3211 3213 28
2571 3211 3214 28
2572 3211 3215 28
2573 3216 3217 28
2574 3216 3218 28
2575 3216 3219 28
2576 3216 3220 28
2577 3221 3222 28
2578 3221 3223 28
2579 3221 3224 28
2580 3221 3225 28
2581 3226 3227 28
2582 3226 3228 28
2583 3226 3229 28
2584 3226 3230 28
2585 3231 3232 28
2586 3231 3233 28
2587 3231 3234 28
2588 3231 3235 28
2589 3236 3237 28
2590 3236 3238 28
2591 3236 3239 28
2592 3236 3240 28
2593 3241 3242 28
2594 3241 3243 28
2595 3241 3244 28
2596 3241 3245 28
2597 3246 3247 28
2598 3246 3248 28
2599 3246 3249 28
2600 3246 3250 28
2601 3251 3252 28
2602 3251 3253 28
2603 3251 3254 28
2604 3251 3255 28
2605 3256 3257 28
2606 3256 3258 28
2607 3256 3259 28
2608 3256 3260 28
2609 3261 3262 28
2610 3261 3263 28
2611 3261 3264 28
2612 3261 3265 28
2613 3266 3267 28
2614 3266 3268 28
2615 3266 3269 28
2616 3266 3270 28
2617 3271 3272 28
2618 3271 3273 28
2619 3271 3274 28
2620 3271 3275 28
2621 3276 3277 28
2622 3276 3278 28
2623 3276 3279 28
2624 3276 3280 28
2625 3281 3282 28
2626 3281 3283 28
2627 3281 3284 28
2628 3281 3285 28
2629 3286 3287 28
2630 3286 3288 28
2631 3286 3289 28
2632 3286 3290 28
2633 3291 3292 28
2634 3291 3293 28
2635 3291 3294 28
2636 3291 3295 28
2637 3296 3297 28
2638 3296 3298 28
2639 3296 3299 28
2640 3296 3300 28
2641 3301 3302 28
2642 3301 3303 28
2643 3301 3304 28
2644 3301 3305 28
2645 3306 3307 28
2646 3306 3308 28
2647 3306 3309 28
2648 3306 3310 28
2649 3311 3312 28
2650 3311 3313 28
2651 3311 3314 28
2652 3311 3315 28
2653 3316 3317 28
2654 3316 3318 28
2655 3316 3319 28
2656 3316 3320 28
2657 3321 3322 28
2658 3321 3323 28
2659 3321 3324 28
2660 3321 3325 28
2661 3326 3327 28
2662 3326 3328 28
2663 3326 3329 28
2664 3326 3330 28
2665 3331 3332 28
2666 3331 3333 28
2667 3331 3334 28
2668 3331 3335 28
2669 3336 3337 28
2670 3336 3338 28
2671 3336 3339 28
2672 3336 3340 28
2673 3341 3342 28
2674 3341 3343 28
2675 3341 3344 28
2676 3341 3345 28
2677 3346 3347 28
2678 3346 3348 28
2679 3346 3349 28
2680 3346 3350 28
2681 3351 3352 28
2682 3351 3353 28
2683 3351 3354 28
2684 3351 3355 28
2685 3356 3357 28
2686 3356 3358 28
2687 3356 3359 28
2688 3356 3360 28
2689 3361 3362 28
2690 3361 3363 28
2691 3361 3364 28
2692 3361 3365 28
2693 3366 3367 28
2694 3366 3368 28
2695 3366 3369 28
2696 3366 3370 28
2697 3371 3372 28
2698 3371 3373 28
2699 3371 3374 28
2700 3371 3375 28
2701 3376 3377 28
2702 3376 3378 28
2703 3376 3379 28
2704 3376 3380 28
2705 3381 3382 28
2706 3381 3383 28
2707 3381 3384 28
2708 3381 3385 28
2709 3386 3387 28
2710 3386 3388 28
2711 3386 3389 28
2712 3386 3390 28
2713 3391 3392 28
2714 3391 3393 28
2715 3391 3394 28
2716 3391 3395 28
2717 3396 3397 28
2718 3396 3398 28
2719 3396 3399 28
2720 3396 3400 28
2721 3401 3402 28
2722 3401 3403 28
2723 3401 3404 28
2724 3401 3405 28
2725 3406 3407 28
2726 3406 3408 28
2727 3406 3409 28
2728 3406 3410 28
2729 3411 3412 28
2730 3411 3413 28
2731 3411 3414 28
2732 3411 3415 28
2733 3416 3417 28
2734 3416 3418 28
2735 3416 3419 28
2736 3416 3420 28
2737 3421 3422 28
2738 3421 3423 28
2739 3421 3424 28
2740 3421 3425 28
2741 3426 3427 28
2742 3426 3428 28
2743 3426 3429 28
2744 3426 3430 28
2745 3431 3432 28
2746 3431 3433 28
2747 3431 3434 28
2748 3431 3435 28
2749 3436 3437 28
2750 3436 3438 28
2751 3436 3439 28
2752 3436 3440 28
2753 3441 3442 28
2754 3441 3443 28
2755 3441 3444 28
2756 3441 3445 28
2757 3446 3447 28
2758 3446 3448 28
2759 3446 3449 28
2760 3446 3450 28
2761 3451 3452 28
2762 3451 3453 28
2763 3451 3454 28
2764 3451 3455 28
2765 3456 3457 28
2766 3456 3458 28
2767 3456 3459 28
2768 3456 3460 28
2769 3461 3462 28
2770 3461 3463 28
2771 3461 3464 28
2772 3461 3465 28
2773 3466 3467 28
2774 3466 3468 28
2775 3466 3469 28
2776 3466 3470 28
2777 3471 3472 28
2778 3471 3473 28
2779 3471 3474 28
2780 3471 3475 28
2781 3476 3477 28
2782 3476 3478 28
2783 3476 3479 28
2784 3476 3480 28
2785 3481 3482 28
2786 3481 3483 28
2787 3481 3484 28
2788 3481 3485 28
2789 3486 3487 28
2790 3486 3488 28
2791 3486 3489 28
2792 3486 3490 28
2793 3491 3492 28
2794 3491 3493 28
2795 3491 3494 28
2796 3491 3495 28
2797 3496 3497 28
2798 3496 3498 28
2799 3496 3499 28
2800 3496 3500 28
2801 3501 3502 28
2802 3501 3503 28
2803 3501 3504 28
2804 3501 3505 28
2805 3506 3507 28
2806 3506 3508 28
2807 3506 3509 28
2808 3506 3510 28
2809 3511 3512 28
2810 3511 3513 28
2811 3511 3514 28
2812 3511 3515 28
2813 3516 3517 28
2814 3516 3518 28
2815 3516 3519 28
2816 3516 3520 28
2817 3521 3522 28
2818 3521 3523 28
2819 3521 3524 28
2820 3521 3525 28
2821 3526 3527 28
2822 3526 3528 28
2823 3526 3529 28
2824 3526 3530 28
2825 3531 3532 28
2826 3531 3533 28
2827 3531 3534 28
2828 3531 3535 28
2829 3536 3537 28
2830 3536 3538 28
2831 3536 3539 28
2832 3536 3540 28
2833 3541 3542 28
2834 3541 3543 28
2835 3541 3544 28
2836 3541 3545 28
2837 3546 3547 28
2838 3546 3548 28
2839 3546 3549 28
2840 3546 3550 28
2841 3551 3552 28
2842 3551 3553 28
2843 3551 3554 28
2844 3551 3555 28
2845 3556 3557 28
2846 3556 3558 28
2847 3556 3559 28
2848 3556 3560 28
2849 3561 3562 28
2850 3561 3563 28
2851 3561 3564 28
2852 3561 3565 28
2853 3566 3567 28
2854 3566 3568 28
2855 3566 3569 28
2856 3566 3570 28
2857 3571 3572 28
2858 3571 3573 28
2859 3571 3574 28
2860 3571 3575 28
2861 3576 3577 28
2862 3576 3578 28
2863 3576 3579 28
2864 3576 3580 28
2865 3581 3582 28
2866 3581 3583 28
2867 3581 3584 28
2868 3581 3585 28
2869 3586 3587 28
2870 3586 3588 28
2871 3586 3589 28
2872 3586 3590 28
2873 3591 3592 28
2874 3591 3593 28
2875 3591 3594 28
2876 3591 3595 28
2877 3596 3597 28
2878 3596 3598 28
2879 3596 3599 28
2880 3596 3600 28
2881 3601 3602 28
2882 3601 3603 28
2883 3601 3604 28
2884 3601 3605 28
2885 3606 3607 28
2886 3606 3608 28
2887 3606 3609 28
2888 3606 3610 28
2889 3611 3612 28
2890 3611 3613 28
2891 3611 3614 28
2892 3611 3615 28
2893 3616 3617 28
2894 3616 3618 28
2895 3616 3619 28
2896 3616 3620 28
2897 3621 3622 28
2898 3621 3623 28
2899 3621 3624 28
2900 3621 3625 28
2901 3626 3627 28
2902 3626 3628 28
2903 3626 3629 28
2904 3626 3630 28
2905 3631 3632 28
2906 3631 3633 28
2907 3631 3634 28
2908 3631 3635 28
2909 3636 3637 28
2910 3636 3638 28
2911 3636 3639 28
2912 3636 3640 28
2913 3641 3642 28
2914 3641 3643 28
2915 3641 3644 28
2916 3641 3645 28
2917 3646 3647 28
2918 3646 3648 28
2919 3646 3649 28
2920 3646 3650 28
2921 3651 3652 28
2922 3651 3653 28
2923 3651 3654 28
2924 3651 3655 28
2925 3656 3657 28
2926 3656 3658 28
2927 3656 3659 28
2928 3656 3660 28
2929 3661 3662 28
2930 3661 3663 28
2931 3661 3664 28
2932 3661 3665 28
2933 3666 3667 28
2934 3666 3668 28
2935 3666 3669 28
2936 3666 3670 28
2937 3671 3672 28
2938 3671 3673 28
2939 3671 3674 28
2940 3671 3675 28
2941 3676 3677 28
2942 3676 3678 28
2943 3676 3679 28
2944 3676 3680 28
2945 3681 3682 28
2946 3681 3683 28
2947 3681 3684 28
2948 3681 3685 28
2949 3686 3687 28
2950 3686 3688 28
2951 3686 3689 28
2952 3686 3690 28
2953 3691 3692 28
2954 3691 3693 28
2955 3691 3694 28
2956 3691 3695 28
2957 3696 3697 28
2958 3696 3698 28
2959 3696 3699 28
2960 3696 3700 28
2961 3701 3702 28
2962 3701 3703 28
2963 3701 3704 28
2964 3701 3705 28
2965 3706 3707 28
2966 3706 3708 28
2967 3706 3709 28
2968 3706 3710 28
2969 3711 3712 28
2970 3711 3713 28
2971 3711 3714 28
2972 3711 3715 28
2973 3716 3717 28
2974 3716 3718 28
2975 3716 3719 28
2976 3716 3720 28
2977 3721 3722 28
2978 3721 3723 28
2979 3721 3724 28
2980 3721 3725 28
2981 3726 3727 28
2982 3726 3728 28
2983 3726 3729 28
2984 3726 3730 28
2985 3731 3732 28
2986 3731 3733 28
2987 3731 3734 28
2988 3731 3735 28
2989 3736 3737 28
2990 3736 3738 28
2991 3736 3739 28
2992 3736 3740 28
2993 3741 3742 28
2994 3741 3743 28
2995 3741 3744 28
2996 3741 3745 28
2997 3746 3747 28
2998 3746 3748 28
2999 3746 3749 28
3000 3746 3750 28
3001 3751 3752 28
3002 3751 3753 28
3003 3751 3754 28
3004 3751 3755 28
3005 3756 3757 28
3006 3756 3758 28
3007 3756 3759 28
3008 3756 3760 28
3009 3761 3762 28
3010 3761 3763 28
3011 3761 3764 28
3012 3761 3765 28
3013 3766 3767 28
3014 3766 3768 28
3015 3766 3769 28
3016 3766 3770 28
3017 3771 3772 28
3018 3771 3773 28
3019 3771 3774 28
3020 3771 3775 28
3021 3776 3777 28
3022 3776 3778 28
3023 3776 3779 28
3024 3776 3780 28
3025 3781 3782 28
3026 3781 3783 28
3027 3781 3784 28
3028 3781 3785 28
3029 3786 3787 28
3030 3786 3788 28
3031 3786 3789 28
3032 3786 3790 28
3033 3791 3792 28
3034 3791 3793 28
3035 3791 3794 28
3036 3791 3795 28
3037 3796 3797 28
3038 3796 3798 28
3039 3796 3799 28
3040 3796 3800 28
3041 3801 3802 28
3042 3801 3803 28
3043 3801 3804 28
3044 3801 3805 28
3045 3806 3807 28
3046 3806 3808 28
3047 3806 3809 28
3048 3806 3810 28
3049 3811 3812 28
3050 3811 3813 28
3051 3811 3814 28
3052 3811 3815 28
3053 3816 3817 28
3054 3816 3818 28
3055 3816 3819 28
3056 3816 3820 28
3057 3821 3822 28
3058 3821 3823 28
3059 3821 3824 28
3060 3821 3825 28
3061 3826 3827 28
3062 3826 3828 28
3063 3826 3829 28
3064 3826 3830 28
3065 3831 3832 28
3066 3831 3833 28
3067 3831 3834 28
3068 3831 3835 28
3069 3836 3837 28
3070 3836 3838 28
3071 3836 3839 28
3072 3836 3840 28
3073 3841 3842 28
3074 3841 3843 28
3075 3841 3844 28
3076 3841 3845 28
3077 3846 3847 28
3078 3846 3848 28
3079 3846 3849 28
3080 3846 3850 28
3081 3851 3852 28
3082 3851 3853 28
3083 3851 3854 28
3084 3851 3855 28
3085 3856 3857 28
3086 3856 3858 28
3087 3856 3859 28
3088 3856 3860 28
3089 3861 3862 28
3090 3861 3863 28
3091 3861 3864 28
3092 3861 3865 28
3093 3866 3867 28
3094 3866 3868 28
3095 3866 3869 28
3096 3866 3870 28
3097 3871 3872 28
3098 3871 3873 28
3099 3871 3874 28
3100 3871 3875 28
3101 3876 3877 28
3102 3876 3878 28
3103 3876 3879 28
3104 3876 3880 28
3105 3881 3882 28
3106 3881 3883 28
3107 3881 3884 28
3108 3881 3885 28
3109 3886 3887 28
3110 3886 3888 28
3111 3886 3889 28
3112 3886 3890 28
3113 3891 3892 28
3114 3891 3893 28
3115 3891 3894 28
3116 3891 3895 28
3117 3896 3897 28
3118 3896 3898 28
3119 3896 3899 28
3120 3896 3900 28
3121 3901 3902 28
3122 3901 3903 28
3123 3901 3904 28
3124 3901 3905 28
3125 3906 3907 28
3126 3906 3908 28
3127 3906 3909 28
3128 3906 3910 28
3129 3911 3912 28
3130 3911 3913 28
3131 3911 3914 28
3132 3911 3915 28
3133 3916 3917 28
3134 3916 3918 28
3135 3916 3919 28
3136 3916 3920 28
3137 3921 3922 28
3138 3921 3923 28
3139 3921 3924 28
3140 3921 3925 28
3141 3926 3927 28
3142 3926 3928 28
3143 3926 3929 28
3144 3926 3930 28
3145 3931 3932 28
3146 3931 3933 28
3147 3931 3934 28
3148 3931 3935 28
3149 3936 3937 28
3150 3936 3938 28
3151 3936 3939 28
3152 3936 3940 28
3153 3941 3942 28
3154 3941 3943 28
3155 3941 3944 28
3156 3941 3945 28
3157 3946 3947 28
3158 3946 3948 28
3159 3946 3949 28
3160 3946 3950 28
3161 3951 3952 28
3162 3951 3953 28
3163 3951 3954 28
3164 3951 3955 28
3165 3956 3957 28
3166 3956 3958 28
3167 3956 3959 28
3168 3956 3960 28
3169 3961 3962 28
3170 3961 3963 28
3171 3961 3964 28
3172 3961 3965 28
3173 3966 3967 28
3174 3966 3968 28
3175 3966 3969 28
3176 3966 3970 28
3177 3971 3972 28
3178 3971 3973 28
3179 3971 3974 28
3180 3971 3975 28
3181 3976 3977 28
3182 3976 3978 28
3183 3976 3979 28
3184 3976 3980 28
3185 3981 3982 28
3186 3981 3983 28
3187 3981 3984 28
3188 3981 3985 28
3189 3986 3987 28
3190 3986 3988 28
3191 3986 3989 28
3192 3986 3990 28
3193 3991 3992 28
3194 3991 3993 28
3195 3991 3994 28
3196 3991 3995 28
3197 3996 3997 28
3198 3996 3998 28
3199 3996 3999 28
3200 3996 4000 28
3201 4001 4002 28
3202 4001 4003 28
3203 4001 4004 28
3204 4001 4005 28
3205 4006 4007 28
3206 4006 4008 28
3207 4006 4009 28
3208 4006 4010 28
3209 4011 4012 28
3210 4011 4013 28
3211 4011 4014 28
3212 4011 4015 28
3213 4016 4017 28
3214 4016 4018 28
3215 4016 4019 28
3216 4016 4020 28
3217 4021 4022 28
3218 4021 4023 28
3219 4021 4024 28
3220 4021 4025 28
3221 4026 4027 28
3222 4026 4028 28
3223 4026 4029 28
3224 4026 4030 28
3225 4031 4032 28
3226 4031 4033 28
3227 4031 4034 28
3228 4031 4035 28
3229 4036 4037 28
3230 4036 4038 28
3231 4036 4039 28
3232 4036 4040 28
3233 4041 4042 28
3234 4041 4043 28
3235 4041 4044 28
3236 4041 4045 28
3237 4046 4047 28
3238 4046 4048 28
3239 4046 4049 28
3240 4046 4050 28
3241 4051 4052 28
3242 4051 4053 28
3243 4051 4054 28
3244 4051 4055 28
3245 4056 4057 28
3246 4056 4058 28
3247 4056 4059 28
3248 4056 4060 28
3249 4061 4062 28
3250 4061 4063 28
3251 4061 4064 28
3252 4061 4065 28
3253 4066 4067 28
3254 4066 4068 28
3255 4066 4069 28
3256 4066 4070 28
3257 4071 4072 28
3258 4071 4073 28
3259 4071 4074 28
3260 4071 4075 28
3261 4076 4077 28
3262 4076 4078 28
3263 4076 4079 28
3264 4076 4080 28
3265 4081 4082 28
3266 4081 4083 28
3267 4081 4084 28
3268 4081 4085 28
3269 4086 4087 28
3270 4086 4088 28
3271 4086 4089 28
3272 4086 4090 28
3273 4091 4092 28
3274 4091 4093 28
3275 4091 4094 28
3276 4091 4095 28
3277 4096 4097 28
3278 4096 4098 28
3279 4096 4099 28
3280 4096 4100 28
3281 4101 4102 28
3282 4101 4103 28
3283 4101 4104 28
3284 4101 4105 28
3285 4106 4107 28
3286 4106 4108 28
3287 4106 4109 28
3288 4106 4110 28
3289 4111 4112 28
3290 4111 4113 28
3291 4111 4114 28
3292 4111 4115 28
3293 4116 4117 28
3294 4116 4118 28
3295 4116 4119 28
3296 4116 4120 28
3297 4121 4122 28
3298 4121 4123 28
3299 4121 4124 28
3300 4121 4125 28
3301 4126 4127 28
3302 4126 4128 28
3303 4126 4129 28
3304 4126 4130 28
3305 4131 4132 28
3306 4131 4133 28
3307 4131 4134 28
3308 4131 4135 28
3309 4136 4137 28
3310 4136 4138 28
3311 4136 4139 28
3312 4136 4140 28
3313 4141 4142 28
3314 4141 4143 28
3315 4141 4144 28
3316 4141 4145 28
3317 4146 4147 28
3318 4146 4148 28
3319 4146 4149 28
3320 4146 4150 28
3321 4151 4152 28
3322 4151 4153 28
3323 4151 4154 28
3324 4151 4155 28
3325 4156 4157 28
3326 4156 4158 28
3327 4156 4159 28
3328 4156 4160 28
3329 4161 4162 28
3330 4161 4163 28
3331 4161 4164 28
3332 4161 4165 28
3333 4166 4167 28
3334 4166 4168 28
3335 4166 4169 28
3336 4166 4170 28
3337 4171 4172 28
3338 4171 4173 28
3339 4171 4174 28
3340 4171 4175 28
3341 4176 4177 28
3342 4176 4178 28
3343 4176 4179 28
3344 4176 4180 28
3345 4181 4182 28
3346 4181 4183 28
3347 4181 4184 28
3348 4181 4185 28
3349 4186 4187 28
3350 4186 4188 28
3351 4186 4189 28
3352 4186 4190 28
3353 4191 4192 28
3354 4191 4193 28
3355 4191 4194 28
3356 4191 4195 28
3357 4196 4197 28
3358 4196 4198 28
3359 4196 4199 28
3360 4196 4200 28
3361 4201 4202 28
3362 4201 4203 28
3363 4201 4204 28
3364 4201 4205 28
3365 4206 4207 28
3366 4206 4208 28
3367 4206 4209 28
3368 4206 4210 28
3369 4211 4212 28
3370 4211 4213 28
3371 4211 4214 28
3372 4211 4215 28
3373 4216 4217 28
3374 4216 4218 28
3375 4216 4219 28
3376 4216 4220 28
3377 4221 4222 28
3378 4221 4223 28
3379 4221 4224 28
3380 4221 4225 28
3381 4226 4227 28
3382 4226 4228 28
3383 4226 4229 28
3384 4226 4230 28
3385 4231 4232 28
3386 4231 4233 28
3387 4231 4234 28
3388 4231 4235 28
3389 4236 4237 28
3390 4236 4238 28
3391 4236 4239 28
3392 4236 4240 28
3393 4241 4242 28
3394 4241 4243 28
3395 4241 4244 28
3396 4241 4245 28
3397 4246 4247 28
3398 4246 4248 28
3399 4246 4249 28
3400 4246 4250 28
3401 4251 4252 28
3402 4251 4253 28
3403 4251 4254 28
3404 4251 4255 28
3405 4256 4257 28
3406 4256 4258 28
3407 4256 4259 28
3408 4256 4260 28
3409 4261 4262 28
3410 4261 4263 28
3411 4261 4264 28
3412 4261 4265 28
3413 4266 4267 28
3414 4266 4268 28
3415 4266 4269 28
3416 4266 4270 28
3417 4271 4272 28
3418 4271 4273 28
3419 4271 4274 28
3420 4271 4275 28
3421 4276 4277 28
3422 4276 4278 28
3423 4276 4279 28
3424 4276 4280 28
3425 4281 4282 28
3426 4281 4283 28
3427 4281 4284 28
3428 4281 4285 28
3429 4286 4287 28
3430 4286 4288 28
3431 4286 4289 28
3432 4286 4290 28
3433 4291 4292 28
3434 4291 4293 28
3435 4291 4294 28
3436 4291 4295 28
3437 4296 4297 28
3438 4296 4298 28
3439 4296 4299 28
3440 4296 4300 28
3441 4301 4302 28
3442 4301 4303 28
3443 4301 4304 28
3444 4301 4305 28
3445 4306 4307 28
3446 4306 4308 28
3447 4306 4309 28
3448 4306 4310 28
3449 4311 4312 28
3450 4311 4313 28
3451 4311 4314 28
3452 4311 4315 28
3453 4316 4317 28
3454 4316 4318 28
3455 4316 4319 28
3456 4316 4320 28
3457 4321 4322 28
3458 4321 4323 28
3459 4321 4324 28
3460 4321 4325 28
3461 4326 4327 28
3462 4326 4328 28
3463 4326 4329 28
3464 4326 4330 28
3465 4331 4332 28
3466 4331 4333 28
3467 4331 4334 28
3468 4331 4335 28
3469 4336 4337 28
3470 4336 4338 28
3471 4336 4339 28
3472 4336 4340 28
3473 4341 4342 28
3474 4341 4343 28
3475 4341 4344 28
3476 4341 4345 28
3477 4346 4347 28
3478 4346 4348 28
3479 4346 4349 28
3480 4346 4350 28
3481 4351 4352 28
3482 4351 4353 28
3483 4351 4354 28
3484 4351 4355 28
3485 4356 4357 28
3486 4356 4358 28
3487 4356 4359 28
3488 4356 4360 28
3489 4361 4362 28
3490 4361 4363 28
3491 4361 4364 28
3492 4361 4365 28
3493 4366 4367 28
3494 4366 4368 28
3495 4366 4369 28
3496 4366 4370 28
3497 4371 4372 28
3498 4371 4373 28
3499 4371 4374 28
3500 4371 4375 28
3501 4376 4377 28
3502 4376 4378 28
3503 4376 4379 28
3504 4376 4380 28
3505 4381 4382 28
3506 4381 4383 28
3507 4381 4384 28
3508 4381 4385 28
3509 4386 4387 28
3510 4386 4388 28
3511 4386 4389 28
3512 4386 4390 28
3513 4391 4392 28
3514 4391 4393 28
3515 4391 4394 28
3516 4391 4395 28
3517 4396 4397 28
3518 4396 4398 28
3519 4396 4399 28
3520 4396 4400 28
3521 4401 4402 28
3522 4401 4403 28
3523 4401 4404 28
3524 4401 4405 28
3525 4406 4407 28
3526 4406 4408 28
3527 4406 4409 28
3528 4406 4410 28
3529 4411 4412 28
3530 4411 4413 28
3531 4411 4414 28
3532 4411 4415 28
3533 4416 4417 28
3534 4416 4418 28
3535 4416 4419 28
3536 4416 4420 28
3537 4421 4422 28
3538 4421 4423 28
3539 4421 4424 28
3540 4421 4425 28
3541 4426 4427 28
3542 4426 4428 28
3543 4426 4429 28
3544 4426 4430 28
3545 4431 4432 28
3546 4431 4433 28
3547 4431 4434 28
3548 4431 4435 28
3549 4436 4437 28
3550 4436 4438 28
3551 4436 4439 28
3552 4436 4440 28
3553 4441 4442 28
3554 4441 4443 28
3555 4441 4444 28
3556 4441 4445 28
3557 4446 4447 28
3558 4446 4448 28
3559 4446 4449 28
3560 4446 4450 28
3561 4451 4452 28
3562 4451 4453 28
3563 4451 4454 28
3564 4451 4455 28
3565 4456 4457 28
3566 4456 4458 28
3567 4456 4459 28
3568 4456 4460 28
3569 4461 4462 28
3570 4461 4463 28
3571 4461 4464 28
3572 4461 4465 28
3573 4466 4467 28
3574 4466 4468 28
3575 4466 4469 28
3576 4466 4470 28
3577 4471 4472 28
3578 4471 4473 28
3579 4471 4474 28
3580 4471 4475 28
3581 4476 4477 28
3582 4476 4478 28
3583 4476 4479 28
3584 4476 4480 28
3585 4481 4482 28
3586 4481 4483 28
3587 4481 4484 28
3588 4481 4485 28
3589 4486 4487 28
3590 4486 4488 28
3591 4486 4489 28
3592 4486 4490 28
3593 4491 4492 28
3594 4491 4493 28
3595 4491 4494 28
3596 4491 4495 28
3597 4496 4497 28
3598 4496 4498 28
3599 4496 4499 28
3600 4496 4500 28
3601 4501 4502 28
3602 4501 4503 28
3603 4501 4504 28
3604 4501 4505 28
3605 4506 4507 28
3606 4506 4508 28
3607 4506 4509 28
3608 4506 4510 28
3609 4511 4512 28
3610 4511 4513 28
3611 4511 4514 28
3612 4511 4515 28
3613 4516 4517 28
3614 4516 4518 28
3615 4516 4519 28
3616 4516 4520 28
3617 4521 4522 28
3618 4521 4523 28
3619 4521 4524 28
3620 4521 4525 28
3621 4526 4527 28
3622 4526 4528 28
3623 4526 4529 28
3624 4526 4530 28
3625 4531 4532 28
3626 4531 4533 28
3627 4531 4534 28
3628 4531 4535 28
3629 4536 4537 28
3630 4536 4538 28
3631 4536 4539 28
3632 4536 4540 28
3633 4541 4542 28
3634 4541 4543 28
3635 4541 4544 28
3636 4541 4545 28
3637 4546 4547 28
3638 4546 4548 28
3639 4546 4549 28
3640 4546 4550 28
3641 4551 4552 28
3642 4551 4553 28
3643 4551 4554 28
3644 4551 4555 28
3645 4556 4557 28
3646 4556 4558 28
3647 4556 4559 28
3648 4556 4560 28
3649 4561 4562 28
3650 4561 4563 28
3651 4561 4564 28
3652 4561 4565 28
3653 4566 4567 28
3654 4566 4568 28
3655 4566 4569 28
3656 4566 4570 28
3657 4571 4572 28
3658 4571 4573 28
3659 4571 4574 28
3660 4571 4575 28
3661 4576 4577 28
3662 4576 4578 28
3663 4576 4579 28
3664 4576 4580 28
3665 4581 4582 28
3666 4581 4583 28
3667 4581 4584 28
3668 4581 4585 28
3669 4586 4587 28
3670 4586 4588 28
3671 4586 4589 28
3672 4586 4590 28
3673 4591 4592 28
3674 4591 4593 28
3675 4591 4594 28
3676 4591 4595 28
3677 4596 4597 28
3678 4596 4598 28
3679 4596 4599 28
3680 4596 4600 28
3681 4601 4602 28
3682 4601 4603 28
3683 4601 4604 28
3684 4601 4605 28
3685 4606 4607 28
3686 4606 4608 28
3687 4606 4609 28
3688 4606 4610 28
3689 4611 4612 28
3690 4611 4613 28
3691 4611 4614 28
3692 4611 4615 28
3693 4616 4617 28
3694 4616 4618 28
3695 4616 4619 28
3696 4616 4620 28
3697 4621 4622 28
3698 4621 4623 28
3699 4621 4624 28
3700 4621 4625 28
3701 4626 4627 28
3702 4626 4628 28
3703 4626 4629 28
3704 4626 4630 28
3705 4631 4632 28
3706 4631 4633 28
3707 4631 4634 28
3708 4631 4635 28
3709 4636 4637 28
3710 4636 4638 28
3711 4636 4639 28
3712 4636 4640 28
3713 4641 4642 28
3714 4641 4643 28
3715 4641 4644 28
3716 4641 4645 28
3717 4646 4647 28
3718 4646 4648 28
3719 4646 4649 28
3720 4646 4650 28
3721 4651 4652 28
3722 4651 4653 28
3723 4651 4654 28
3724 4651 4655 28
3725 4656 4657 28
3726 4656 4658 28
3727 4656 4659 28
3728 4656 4660 28
3729 4661 4662 28
3730 4661 4663 28
3731 4661 4664 28
3732 4661 4665 28
3733 4666 4667 28
3734 4666 4668 28
3735 4666 4669 28
3736 4666 4670 28
3737 4671 4672 28
3738 4671 4673 28
3739 4671 4674 28
3740 4671 4675 28
3741 4676 4677 28
3742 4676 4678 28
3743 4676 4679 28
3744 4676 4680 28
3745 4681 4682 28
3746 4681 4683 28
3747 4681 4684 28
3748 4681 4685 28
3749 4686 4687 28
3750 4686 4688 28
3751 4686 4689 28
3752 4686 4690 28
3753 4691 4692 28
3754 4691 4693 28
3755 4691 4694 28
3756 4691 4695 28
3757 4696 4697 28
3758 4696 4698 28
3759 4696 4699 28
3760 4696 4700 28
3761 4701 4702 28
3762 4701 4703 28
3763 4701 4704 28
3764 4701 4705 28
3765 4706 4707 28
3766 4706 4708 28
3767 4706 4709 28
3768 4706 4710 28
3769 4711 4712 28
3770 4711 4713 28
3771 4711 4714 28
3772 4711 4715 28
3773 4716 4717 28
3774 4716 4718 28
3775 4716 4719 28
3776 4716 4720 28
3777 4721 4722 28
3778 4721 4723 28
3779 4721 4724 28
3780 4721 4725 28
3781 4726 4727 28
3782 4726 4728 28
3783 4726 4729 28
3784 4726 4730 28
3785 4731 4732 28
3786 4731 4733 28
3787 4731 4734 28
3788 4731 4735 28
3789 4736 4737 28
3790 4736 4738 28
3791 4736 4739 28
3792 4736 4740 28
3793 4741 4742 28
3794 4741 4743 28
3795 4741 4744 28
3796 4741 4745 28
3797 4746 4747 28
3798 4746 4748 28
3799 4746 4749 28
3800 4746 4750 28
3801 4751 4752 28
3802 4751 4753 28
3803 4751 4754 28
3804 4751 4755 28
3805 4756 4757 28
3806 4756 4758 28
3807 4756 4759 28
3808 4756 4760 28
3809 4761 4762 28
3810 4761 4763 28
3811 4761 4764 28
3812 4761 4765 28
3813 4766 4767 28
3814 4766 4768 28
3815 4766 4769 28
3816 4766 4770 28
3817 4771 4772 28
3818 4771 4773 28
3819 4771 4774 28
3820 4771 4775 28
3821 4776 4777 28
3822 4776 4778 28
3823 4776 4779 28
3824 4776 4780 28
3825 4781 4782 28
3826 4781 4783 28
3827 4781 4784 28
3828 4781 4785 28
3829 4786 4787 28
3830 4786 4788 28
3831 4786 4789 28
3832 4786 4790 28
3833 4791 4792 28
3834 4791 4793 28
3835 4791 4794 28
3836 4791 4795 28
3837 4796 4797 28
3838 4796 4798 28
3839 4796 4799 28
3840 4796 4800 28
3841 4801 4802 28
3842 4801 4803 28
3843 4801 4804 28
3844 4801 4805 28
3845 4806 4807 28
3846 4806 4808 28
3847 4806 4809 28
3848 4806 4810 28
3849 4811 4812 28
3850 4811 4813 28
3851 4811 4814 28
3852 4811 4815 28
3853 4816 4817 28
3854 4816 4818 28
3855 4816 4819 28
3856 4816 4820 28
3857 4821 4822 28
3858 4821 4823 28
3859 4821 4824 28
3860 4821 4825 28
3861 4826 4827 28
3862 4826 4828 28
3863 4826 4829 28
3864 4826 4830 28
3865 4831 4832 28
3866 4831 4833 28
3867 4831 4834 28
3868 4831 4835 28
3869 4836 4837 28
3870 4836 4838 28
3871 4836 4839 28
3872 4836 4840 28
3873 4841 4842 28
3874 4841 4843 28
3875 4841 4844 28
3876 4841 4845 28
3877 4846 4847 28
3878 4846 4848 28
3879 4846 4849 28
3880 4846 4850 28
3881 4851 4852 28
3882 4851 4853 28
3883 4851 4854 28
3884 4851 4855 28
3885 4856 4857 28
3886 4856 4858 28
3887 4856 4859 28
3888 4856 4860 28
3889 4861 4862 28
3890 4861 4863 28
3891 4861 4864 28
3892 4861 4865 28
3893 4866 4867 28
3894 4866 4868 28
3895 4866 4869 28
3896 4866 4870 28
3897 4871 4872 28
3898 4871 4873 28
3899 4871 4874 28
3900 4871 4875 28
3901 4876 4877 28
3902 4876 4878 28
3903 4876 4879 28
3904 4876 4880 28
3905 4881 4882 28
3906 4881 4883 28
3907 4881 4884 28
3908 4881 4885 28
3909 4886 4887 28
3910 4886 4888 28
3911 4886 4889 28
3912 4886 4890 28
3913 4891 4892 28
3914 4891 4893 28
3915 4891 4894 28
3916 4891 4895 28
3917 4896 4897 28
3918 4896 4898 28
3919 4896 4899 28
3920 4896 4900 28
3921 4901 4902 28
3922 4901 4903 28
3923 4901 4904 28
3924 4901 4905 28
3925 4906 4907 28
3926 4906 4908 28
3927 4906 4909 28
3928 4906 4910 28
3929 4911 4912 28
3930 4911 4913 28
3931 4911 4914 28
3932 4911 4915 28
3933 4916 4917 28
3934 4916 4918 28
3935 4916 4919 28
3936 4916 4920 28
3937 4921 4922 28
3938 4921 4923 28
3939 4921 4924 28
3940 4921 4925 28
3941 4926 4927 28
3942 4926 4928 28
3943 4926 4929 28
3944 4926 4930 28
3945 4931 4932 28
3946 4931 4933 28
3947 4931 4934 28
3948 4931 4935 28
3949 4936 4937 28
3950 4936 4938 28
3951 4936 4939 28
3952 4936 4940 28
3953 4941 4942 28
3954 4941 4943 28
3955 4941 4944 28
3956 4941 4945 28
3957 4946 4947 28
3958 4946 4948 28
3959 4946 4949 28
3960 4946 4950 28
3961 4951 4952 28
3962 4951 4953 28
3963 4951 4954 28
3964 4951 4955 28
3965 4956 4957 28
3966 4956 4958 28
3967 4956 4959 28
3968 4956 4960 28
3969 4961 4962 28
3970 4961 4963 28
3971 4961 4964 28
3972 4961 4965 28
3973 4966 4967 28
3974 4966 4968 28
3975 4966 4969 28
3976 4966 4970 28
3977 4971 4972 28
3978 4971 4973 28
3979 4971 4974 28
3980 4971 4975 28
3981 4976 4977 28
3982 4976 4978 28
3983 4976 4979 28
3984 4976 4980 28
3985 4981 4982 28
3986 4981 4983 28
3987 4981 4984 28
3988 4981 4985 28
3989 4986 4987 28
3990 4986 4988 28
3991 4986 4989 28
3992 4986 4990 28
3993 4991 4992 28
3994 4991 4993 28
3995 4991 4994 28
3996 4991 4995 28
3997 4996 4997 28
3998 4996 4998 28
3999 4996 4999 28
4000 4996 5000 28
4001 5001 5002 28
4002 5001 5003 28
4003 5001 5004 28
4004 5001 5005 28
4005 5006 5007 28
4006 5006 5008 28
4007 5006 5009 28
4008 5006 5010 28
4009 5011 5012 28
4010 5011 5013 28
4011 5011 5014 28
4012 5011 5015 28
4013 5016 5017 28
4014 5016 5018 28
4015 5016 5019 28
4016 5016 5020 28
4017 5021 5022 28
4018 5021 5023 28
4019 5021 5024 28
4020 5021 5025 28
4021 5026 5027 28
4022 5026 5028 28
4023 5026 5029 28
4024 5026 5030 28
4025 5031 5032 28
4026 5031 5033 28
4027 5031 5034 28
4028 5031 5035 28
4029 5036 5037 28
4030 5036 5038 28
4031 5036 5039 28
4032 5036 5040 28
4033 5041 5042 28
4034 5041 5043 28
4035 5041 5044 28
4036 5041 5045 28
4037 5046 5047 28
4038 5046 5048 28
4039 5046 5049 28
4040 5046 5050 28
4041 5051 5052 28
4042 5051 5053 28
4043 5051 5054 28
4044 5051 5055 28
4045 5056 5057 28
4046 5056 5058 28
4047 5056 5059 28
4048 5056 5060 28
4049 5061 5062 28
4050 5061 5063 28
4051 5061 5064 28
4052 5061 5065 28
4053 5066 5067 28
4054 5066 5068 28
4055 5066 5069 28
4056 5066 5070 28
4057 5071 5072 28
4058 5071 5073 28
4059 5071 5074 28
4060 5071 5075 28
4061 5076 5077 28
4062 5076 5078 28
4063 5076 5079 28
4064 5076 5080 28
4065 5081 5082 28
4066 5081 5083 28
4067 5081 5084 28
4068 5081 5085 28
4069 5086 5087 28
4070 5086 5088 28
4071 5086 5089 28
4072 5086 5090 28
4073 5091 5092 28
4074 5091 5093 28
4075 5091 5094 28
4076 5091 5095 28
4077 5096 5097 28
4078 5096 5098 28
4079 5096 5099 28
4080 5096 5100 28
4081 5101 5102 28
4082 5101 5103 28
4083 5101 5104 28
4084 5101 5105 28
4085 5106 5107 28
4086 5106 5108 28
4087 5106 5109 28
4088 5106 5110 28
4089 5111 5112 28
4090 5111 5113 28
4091 5111 5114 28
4092 5111 5115 28
4093 5116 5117 28
4094 5116 5118 28
4095 5116 5119 28
4096 5116 5120 28
4097 5121 5122 28
4098 5121 5123 28
4099 5121 5124 28
4100 5121 5125 28
4101 5126 5127 28
4102 5126 5128 28
4103 5126 5129 28
4104 5126 5130 28
4105 5131 5132 28
4106 5131 5133 28
4107 5131 5134 28
4108 5131 5135 28
4109 5136 5137 28
4110 5136 5138 28
4111 5136 5139 28
4112 5136 5140 28
4113 5141 5142 28
4114 5141 5143 28
4115 5141 5144 28
4116 5141 5145 28
4117 5146 5147 28
4118 5146 5148 28
4119 5146 5149 28
4120 5146 5150 28
4121 5151 5152 28
4122 5151 5153 28
4123 5151 5154 28
4124 5151 5155 28
4125 5156 5157 28
4126 5156 5158 28
4127 5156 5159 28
4128 5156 5160 28
4129 5161 5162 28
4130 5161 5163 28
4131 5161 5164 28
4132 5161 5165 28
4133 5166 5167 28
4134 5166 5168 28
4135 5166 5169 28
4136 5166 5170 28
4137 5171 5172 28
4138 5171 5173 28
4139 5171 5174 28
4140 5171 5175 28
4141 5176 5177 28
4142 5176 5178 28
4143 5176 5179 28
4144 5176 5180 28
4145 5181 5182 28
4146 5181 5183 28
4147 5181 5184 28
4148 5181 5185 28
4149 5186 5187 28
4150 5186 5188 28
4151 5186 5189 28
4152 5186 5190 28
4153 5191 5192 28
4154 5191 5193 28
4155 5191 5194 28
4156 5191 5195 28
4157 5196 5197 28
4158 5196 5198 28
4159 5196 5199 28
4160 5196 5200 28
4161 5201 5202 28
4162 5201 5203 28
4163 5201 5204 28
4164 5201 5205 28
4165 5206 5207 28
4166 5206 5208 28
4167 5206 5209 28
4168 5206 5210 28
4169 5211 5212 28
4170 5211 5213 28
4171 5211 5214 28
4172 5211 5215 28
4173 5216 5217 28
4174 5216 5218 28
4175 5216 5219 28
4176 5216 5220 28
4177 5221 5222 28
4178 5221 5223 28
4179 5221 5224 28
4180 5221 5225 28
4181 5226 5227 28
4182 5226 5228 28
4183 5226 5229 28
4184 5226 5230 28
4185 5231 5232 28
4186 5231 5233 28
4187 5231 5234 28
4188 5231 5235 28
4189 5236 5237 28
4190 5236 5238 28
4191 5236 5239 28
4192 5236 5240 28
4193 5241 5242 28
4194 5241 5243 28
4195 5241 5244 28
4196 5241 5245 28
4197 5246 5247 28
4198 5246 5248 28
4199 5246 5249 28
4200 5246 5250 28
4201 5251 5252 28
4202 5251 5253 28
4203 5251 5254 28
4204 5251 5255 28
4205 5256 5257 28
4206 5256 5258 28
4207 5256 5259 28
4208 5256 5260 28
4209 5261 5262 28
4210 5261 5263 28
4211 5261 5264 28
4212 5261 5265 28
4213 5266 5267 28
4214 5266 5268 28
4215 5266 5269 28
4216 5266 5270 28
4217 5271 5272 28
4218 5271 5273 28
4219 5271 5274 28
4220 5271 5275 28
4221 5276 5277 28
4222 5276 5278 28
4223 5276 5279 28
4224 5276 5280 28
4225 5281 5282 28
4226 5281 5283 28
4227 5281 5284 28
4228 5281 5285 28
4229 5286 5287 28
4230 5286 5288 28
4231 5286 5289 28
4232 5286 5290 28
4233 5291 5292 28
4234 5291 5293 28
4235 5291 5294 28
4236 5291 5295 28
4237 5296 5297 28
4238 5296 5298 28
4239 5296 5299 28
4240 5296 5300 28
4241 5301 5302 28
4242 5301 5303 28
4243 5301 5304 28
4244 5301 5305 28
4245 5306 5307 28
4246 5306 5308 28
4247 5306 5309 28
4248 5306 5310 28
4249 5311 5312 28
4250 5311 5313 28
4251 5311 5314 28
4252 5311 5315 28
4253 5316 5317 28
4254 5316 5318 28
4255 5316 5319 28
4256 5316 5320 28
4257 5321 5322 28
4258 5321 5323 28
4259 5321 5324 28
4260 5321 5325 28
4261 5326 5327 28
4262 5326 5328 28
4263 5326 5329 28
4264 5326 5330 28
4265 5331 5332 28
4266 5331 5333 28
4267 5331 5334 28
4268 5331 5335 28
4269 5336 5337 28
4270 5336 5338 28
4271 5336 5339 28
4272 5336 5340 28
4273 5341 5342 28
4274 5341 5343 28
4275 5341 5344 28
4276 5341 5345 28
4277 5346 5347 28
4278 5346 5348 28
4279 5346 5349 28
4280 5346 5350 28
4281 5351 5352 28
4282 5351 5353 28
4283 5351 5354 28
4284 5351 5355 28
4285 5356 5357 28
4286 5356 5358 28
4287 5356 5359 28
4288 5356 5360 28
4289 5361 5362 28
4290 5361 5363 28
4291 5361 5364 28
4292 5361 5365 28
4293 5366 5367 28
4294 5366 5368 28
4295 5366 5369 28
4296 5366 5370 28
4297 5371 5372 28
4298 5371 5373 28
4299 5371 5374 28
4300 5371 5375 28
4301 5376 5377 28
4302 5376 5378 28
4303 5376 5379 28
4304 5376 5380 28
4305 5381 5382 28
4306 5381 5383 28
4307 5381 5384 28
4308 5381 5385 28
4309 5386 5387 28
4310 5386 5388 28
4311 5386 5389 28
4312 5386 5390 28
4313 5391 5392 28
4314 5391 5393 28
4315 5391 5394 28
4316 5391 5395 28
4317 5396 5397 28
4318 5396 5398 28
4319 5396 5399 28
4320 5396 5400 28
4321 5401 5402 28
4322 5401 5403 28
4323 5401 5404 28
4324 5401 5405 28
4325 5406 5407 28
4326 5406 5408 28
4327 5406 5409 28
4328 5406 5410 28
4329 5411 5412 28
4330 5411 5413 28
4331 5411 5414 28
4332 5411 5415 28
4333 5416 5417 28
4334 5416 5418 28
4335 5416 5419 28
4336 5416 5420 28
4337 5421 5422 28
4338 5421 5423 28
4339 5421 5424 28
4340 5421 5425 28
4341 5426 5427 28
4342 5426 5428 28
4343 5426 5429 28
4344 5426 5430 28
4345 5431 5432 28
4346 5431 5433 28
4347 5431 5434 28
4348 5431 5435 28
4349 5436 5437 28
4350 5436 5438 28
4351 5436 5439 28
4352 5436 5440 28
4353 5441 5442 28
4354 5441 5443 28
4355 5441 5444 28
4356 5441 5445 28
4357 5446 5447 28
4358 5446 5448 28
4359 5446 5449 28
4360 5446 5450 28
4361 5451 5452 28
4362 5451 5453 28
4363 5451 5454 28
4364 5451 5455 28
4365 5456 5457 28
4366 5456 5458 28
4367 5456 5459 28
4368 5456 5460 28
4369 5461 5462 28
4370 5461 5463 28
4371 5461 5464 28
4372 5461 5465 28
4373 5466 5467 28
4374 5466 5468 28
4375 5466 5469 28
4376 5466 5470 28
4377 5471 5472 28
4378 5471 5473 28
4379 5471 5474 28
4380 5471 5475 28
4381 5476 5477 28
4382 5476 5478 28
4383 5476 5479 28
4384 5476 5480 28
4385 5481 5482 28
4386 5481 5483 28
4387 5481 5484 28
4388 5481 5485 28
4389 5486 5487 28
4390 5486 5488 28
4391 5486 5489 28
4392 5486 5490 28
4393 5491 5492 28
4394 5491 5493 28
4395 5491 5494 28
4396 5491 5495 28
4397 5496 5497 28
4398 5496 5498 28
4399 5496 5499 28
4400 5496 5500 28
4401 5501 5502 28
4402 5501 5503 28
4403 5501 5504 28
4404 5501 5505 28
4405 5506 5507 28
4406 5506 5508 28
4407 5506 5509 28
4408 5506 5510 28
4409 5511 5512 28
4410 5511 5513 28
4411 5511 5514 28
4412 5511 5515 28
4413 5516 5517 28
4414 5516 5518 28
4415 5516 5519 28
4416 5516 5520 28
4417 5521 5522 28
4418 5521 5523 28
4419 5521 5524 28
4420 5521 5525 28
4421 5526 5527 28
4422 5526 5528 28
4423 5526 5529 28
4424 5526 5530 28
4425 5531 5532 28
4426 5531 5533 28
4427 5531 5534 28
4428 5531 5535 28
4429 5536 5537 28
4430 5536 5538 28
4431 5536 5539 28
4432 5536 5540 28
4433 5541 5542 28
4434 5541 5543 28
4435 5541 5544 28
4436 5541 5545 28
4437 5546 5547 28
4438 5546 5548 28
4439 5546 5549 28
4440 5546 5550 28
4441 5551 5552 28
4442 5551 5553 28
4443 5551 5554 28
4444 5551 5555 28
4445 5556 5557 28
4446 5556 5558 28
4447 5556 5559 28
4448 5556 5560 28
4449 5561 5562 28
4450 5561 5563 28
4451 5561 5564 28
4452 5561 5565 28
4453 5566 5567 28
4454 5566 5568 28
4455 5566 5569 28
4456 5566 5570 28
4457 5571 5572 28
4458 5571 5573 28
4459 5571 5574 28
4460 5571 5575 28
4461 5576 5577 28
4462 5576 5578 28
4463 5576 5579 28
4464 5576 5580 28
4465 5581 5582 28
4466 5581 5583 28
4467 5581 5584 28
4468 5581 5585 28
4469 5586 5587 28
4470 5586 5588 28
4471 5586 5589 28
4472 5586 5590 28
4473 5591 5592 28
4474 5591 5593 28
4475 5591 5594 28
4476 5591 5595 28
4477 5596 5597 28
4478 5596 5598 28
4479 5596 5599 28
4480 5596 5600 28
4481 5601 5602 28
4482 5601 5603 28
4483 5601 5604 28
4484 5601 5605 28
4485 5606 5607 28
4486 5606 5608 28
4487 5606 5609 28
4488 5606 5610 28
4489 5611 5612 28
4490 5611 5613 28
4491 5611 5614 28
4492 5611 5615 28
4493 5616 5617 28
4494 5616 5618 28
4495 5616 5619 28
4496 5616 5620 28
4497 5621 5622 28
4498 5621 5623 28
4499 5621 5624 28
4500 5621 5625 28
4501 5626 5627 28
4502 5626 5628 28
4503 5626 5629 28
4504 5626 5630 28
4505 5631 5632 28
4506 5631 5633 28
4507 5631 5634 28
4508 5631 5635 28
4509 5636 5637 28
4510 5636 5638 28
4511 5636 5639 28
4512 5636 5640 28
4513 5641 5642 28
4514 5641 5643 28
4515 5641 5644 28
4516 5641 5645 28
4517 5646 5647 28
4518 5646 5648 28
4519 5646 5649 28
4520 5646 5650 28
4521 5651 5652 28
4522 5651 5653 28
4523 5651 5654 28
4524 5651 5655 28
4525 5656 5657 28
4526 5656 5658 28
4527 5656 5659 28
4528 5656 5660 28
4529 5661 5662 28
4530 5661 5663 28
4531 5661 5664 28
4532 5661 5665 28
4533 5666 5667 28
4534 5666 5668 28
4535 5666 5669 28
4536 5666 5670 28
4537 5671 5672 28
4538 5671 5673 28
4539 5671 5674 28
4540 5671 5675 28
4541 5676 5677 28
4542 5676 5678 28
4543 5676 5679 28
4544 5676 5680 28
4545 5681 5682 28
4546 5681 5683 28
4547 5681 5684 28
4548 5681 5685 28
4549 5686 5687 28
4550 5686 5688 28
4551 5686 5689 28
4552 5686 5690 28
4553 5691 5692 28
4554 5691 5693 28
4555 5691 5694 28
4556 5691 5695 28
4557 5696 5697 28
4558 5696 5698 28
4559 5696 5699 28
4560 5696 5700 28
4561 5701 5702 28
4562 5701 5703 28
4563 5701 5704 28
4564 5701 5705 28
4565 5706 5707 28
4566 5706 5708 28
4567 5706 5709 28
4568 5706 5710 28
4569 5711 5712 28
4570 5711 5713 28
4571 5711 5714 28
4572 5711 5715 28
4573 5716 5717 28
4574 5716 5718 28
4575 5716 5719 28
4576 5716 5720 28
4577 5721 5722 28
4578 5721 5723 28
4579 5721 5724 28
4580 5721 5725 28
4581 5726 5727 28
4582 5726 5728 28
4583 5726 5729 28
4584 5726 5730 28
4585 5731 5732 28
4586 5731 5733 28
4587 5731 5734 28
4588 5731 5735 28
4589 5736 5737 28
4590 5736 5738 28
4591 5736 5739 28
4592 5736 5740 28
4593 5741 5742 28
4594 5741 5743 28
4595 5741 5744 28
4596 5741 5745 28
4597 5746 5747 28
4598 5746 5748 28
4599 5746 5749 28
4600 5746 5750 28
4601 5751 5752 28
4602 5751 5753 28
4603 5751 5754 28
4604 5751 5755 28
4605 5756 5757 28
4606 5756 5758 28
4607 5756 5759 28
4608 5756 5760 28
4609 5761 5762 28
4610 5761 5763 28
4611 5761 5764 28
4612 5761 5765 28
4613 5766 5767 28
4614 5766 5768 28
4615 5766 5769 28
4616 5766 5770 28
4617 5771 5772 28
4618 5771 5773 28
4619 5771 5774 28
4620 5771 5775 28
4621 5776 5777 28
4622 5776 5778 28
4623 5776 5779 28
4624 5776 5780 28
4625 5781 5782 28
4626 5781 5783 28
4627 5781 5784 28
4628 5781 5785 28
4629 5786 5787 28
4630 5786 5788 28
4631 5786 5789 28
4632 5786 5790 28
4633 5791 5792 28
4634 5791 5793 28
4635 5791 5794 28
4636 5791 5795 28
4637 5796 5797 28
4638 5796 5798 28
4639 5796 5799 28
4640 5796 5800 28
4641 5801 5802 28
4642 5801 5803 28
4643 5801 5804 28
4644 5801 5805 28
4645 5806 5807 28
4646 5806 5808 28
4647 5806 5809 28
4648 5806 5810 28
4649 5811 5812 28
4650 5811 5813 28
4651 5811 5814 28
4652 5811 5815 28
4653 5816 5817 28
4654 5816 5818 28
4655 5816 5819 28
4656 5816 5820 28
4657 5821 5822 28
4658 5821 5823 28
4659 5821 5824 28
4660 5821 5825 28
4661 5826 5827 28
4662 5826 5828 28
4663 5826 5829 28
4664 5826 5830 28
4665 5831 5832 28
4666 5831 5833 28
4667 5831 5834 28
4668 5831 5835 28
4669 5836 5837 28
4670 5836 5838 28
4671 5836 5839 28
4672 5836 5840 28
4673 5841 5842 28
4674 5841 5843 28
4675 5841 5844 28
4676 5841 5845 28
4677 5846 5847 28
4678 5846 5848 28
4679 5846 5849 28
4680 5846 5850 28
4681 5851 5852 28
4682 5851 5853 28
4683 5851 5854 28
4684 5851 5855 28
4685 5856 5857 28
4686 5856 5858 28
4687 5856 5859 28
4688 5856 5860 28
4689 5861 5862 28
4690 5861 5863 28
4691 5861 5864 28
4692 5861 5865 28
4693 5866 5867 28
4694 5866 5868 28
4695 5866 5869 28
4696 5866 5870 28
4697 5871 5872 28
4698 5871 5873 28
4699 5871 5874 28
4700 5871 5875 28
4701 5876 5877 28
4702 5876 5878 28
4703 5876 5879 28
4704 5876 5880 28
4705 5881 5882 28
4706 5881 5883 28
4707 5881 5884 28
4708 5881 5885 28
4709 5886 5887 28
4710 5886 5888 28
4711 5886 5889 28
4712 5886 5890 28
4713 5891 5892 28
4714 5891 5893 28
4715 5891 5894 28
4716 5891 5895 28
4717 5896 5897 28
4718 5896 5898 28
4719 5896 5899 28
4720 5896 5900 28
4721 5901 5902 28
4722 5901 5903 28
4723 5901 5904 28
4724 5901 5905 28
4725 5906 5907 28
4726 5906 5908 28
4727 5906 5909 28
4728 5906 5910 28
4729 5911 5912 28
4730 5911 5913 28
4731 5911 5914 28
4732 5911 5915 28
4733 5916 5917 28
4734 5916 5918 28
4735 5916 5919 28
4736 5916 5920 28
4737 5921 5922 28
4738 5921 5923 28
4739 5921 5924 28
4740 5921 5925 28
4741 5926 5927 28
4742 5926 5928 28
4743 5926 5929 28
4744 5926 5930 28
4745 5931 5932 28
4746 5931 5933 28
4747 5931 5934 28
4748 5931 5935 28
4749 5936 5937 28
4750 5936 5938 28
4751 5936 5939 28
4752 5936 5940 28
4753 5941 5942 28
4754 5941 5943 28
4755 5941 5944 28
4756 5941 5945 28
4757 5946 5947 28
4758 5946 5948 28
4759 5946 5949 28
4760 5946 5950 28
4761 5951 5952 28
4762 5951 5953 28
4763 5951 5954 28
4764 5951 5955 28
4765 5956 5957 28
4766 5956 5958 28
4767 5956 5959 28
4768 5956 5960 28
4769 5961 5962 28
4770 5961 5963 28
4771 5961 5964 28
4772 5961 5965 28
4773 5966 5967 28
4774 5966 5968 28
4775 5966 5969 28
4776 5966 5970 28
4777 5971 5972 28
4778 5971 5973 28
4779 5971 5974 28
4780 5971 5975 28
4781 5976 5977 28
4782 5976 5978 28
4783 5976 5979 28
4784 5976 5980 28
4785 5981 5982 28
4786 5981 5983 28
4787 5981 5984 28
4788 5981 5985 28
4789 5986 5987 28
4790 5986 5988 28
4791 5986 5989 28
4792 5986 5990 28
4793 5991 5992 28
4794 5991 5993 28
4795 5991 5994 28
4796 5991 5995 28
4797 5996 5997 28
4798 5996 5998 28
4799 5996 5999 28
4800 5996 6000 28
4801 6001 6002 28
4802 6001 6003 28
4803 6001 6004 28
4804 6001 6005 28
4805 6006 6007 28
4806 6006 6008 28
4807 6006 6009 28
4808 6006 6010 28
4809 6011 6012 28
4810 6011 6013 28
4811 6011 6014 28
4812 6011 6015 28
4813 6016 6017 28
4814 6016 6018 28
4815 6016 6019 28
4816 6016 6020 28
4817 6021 6022 28
4818 6021 6023 28
4819 6021 6024 28
4820 6021 6025 28
4821 6026 6027 28
4822 6026 6028 28
4823 6026 6029 28
4824 6026 6030 28
4825 6031 6032 28
4826 6031 6033 28
4827 6031 6034 28
4828 6031 6035 28
4829 6036 6037 28
4830 6036 6038 28
4831 6036 6039 28
4832 6036 6040 28
4833 6041 6042 28
4834 6041 6043 28
4835 6041 6044 28
4836 6041 6045 28
4837 6046 6047 28
4838 6046 6048 28
4839 6046 6049 28
4840 6046 6050 28
4841 6051 6052 28
4842 6051 6053 28
4843 6051 6054 28
4844 6051 6055 28
4845 6056 6057 28
4846 6056 6058 28
4847 6056 6059 28
4848 6056 6060 28
4849 6061 6062 28
4850 6061 6063 28
4851 6061 6064 28
4852 6061 6065 28
4853 6066 6067 28
4854 6066 6068 28
4855 6066 6069 28
4856 6066 6070 28
4857 6071 6072 28
4858 6071 6073 28
4859 6071 6074 28
4860 6071 6075 28
4861 6076 6077 28
4862 6076 6078 28
4863 6076 6079 28
4864 6076 6080 28
4865 6081 6082 28
4866 6081 6083 28
4867 6081 6084 28
4868 6081 6085 28
4869 6086 6087 28
4870 6086 6088 28
4871 6086 6089 28
4872 6086 6090 28
4873 6091 6092 28
4874 6091 6093 28
4875 6091 6094 28
4876 6091 6095 28
4877 6096 6097 28
4878 6096 6098 28
4879 6096 6099 28
4880 6096 6100 28
4881 6101 6102 28
4882 6101 6103 28
4883 6101 6104 28
4884 6101 6105 28
4885 6106 6107 28
4886 6106 6108 28
4887 6106 6109 28
4888 6106 6110 28
4889 6111 6112 28
4890 6111 6113 28
4891 6111 6114 28
4892 6111 6115 28
4893 6116 6117 28
4894 6116 6118 28
4895 6116 6119 28
4896 6116 6120 28
4897 6121 6122 28
4898 6121 6123 28
4899 6121 6124 28
4900 6121 6125 28
4901 6126 6127 28
4902 6126 6128 28
4903 6126 6129 28
4904 6126 6130 28
4905 6131 6132 28
4906 6131 6133 28
4907 6131 6134 28
4908 6131 6135 28
4909 6136 6137 28
4910 6136 6138 28
4911 6136 6139 28
4912 6136 6140 28
4913 6141 6142 28
4914 6141 6143 28
4915 6141 6144 28
4916 6141 6145 28
4917 6146 6147 28
4918 6146 6148 28
4919 6146 6149 28
4920 6146 6150 28
4921 6151 6152 28
4922 6151 6153 28
4923 6151 6154 28
4924 6151 6155 28
4925 6156 6157 28
4926 6156 6158 28
4927 6156 6159 28
4928 6156 6160 28
4929 6161 6162 28
4930 6161 6163 28
4931 6161 6164 28
4932 6161 6165 28
4933 6166 6167 28
4934 6166 6168 28
4935 6166 6169 28
4936 6166 6170 28
4937 6171 6172 28
4938 6171 6173 28
4939 6171 6174 28
4940 6171 6175 28
4941 6176 6177 28
4942 6176 6178 28
4943 6176 6179 28
4944 6176 6180 28
4945 6181 6182 28
4946 6181 6183 28
4947 6181 6184 28
4948 6181 6185 28
4949 6186 6187 28
4950 6186 6188 28
4951 6186 6189 28
4952 6186 6190 28
4953 6191 6192 28
4954 6191 6193 28
4955 6191 6194 28
4956 6191 6195 28
4957 6196 6197 28
4958 6196 6198 28
4959 6196 6199 28
4960 6196 6200 28
4961 6201 6202 28
4962 6201 6203 28
4963 6201 6204 28
4964 6201 6205 28
4965 6206 6207 28
4966 6206 6208 28
4967 6206 6209 28
4968 6206 6210 28
4969 6211 6212 28
4970 6211 6213 28
4971 6211 6214 28
4972 6211 6215 28
4973 6216 6217 28
4974 6216 6218 28
4975 6216 6219 28
4976 6216 6220 28
4977 6221 6222 28
4978 6221 6223 28
4979 6221 6224 28
4980 6221 6225 28
4981 6226 6227 28
4982 6226 6228 28
4983 6226 6229 28
4984 6226 6230 28
4985 6231 6232 28
4986 6231 6233 28
4987 6231 6234 28
4988 6231 6235 28
4989 6236 6237 28
4990 6236 6238 28
4991 6236 6239 28
4992 6236 6240 28
4993 6241 6242 28
4994 6241 6243 28
4995 6241 6244 28
4996 6241 6245 28
4997 6246 6247 28
4998 6246 6248 28
4999 6246 6249 28
5000 6246 6250 28
5001 6251 6252 28
5002 6251 6253 28
5003 6251 6254 28
5004 6251 6255 28
5005 6256 6257 28
5006 6256 6258 28
5007 6256 6259 28
5008 6256 6260 28
5009 6261 6262 28
5010 6261 6263 28
5011 6261 6264 28
5012 6261 6265 28
5013 6266 6267 28
5014 6266 6268 28
5015 6266 6269 28
5016 6266 6270 28
5017 6271 6272 28
5018 6271 6273 28
5019 6271 6274 28
5020 6271 6275 28
5021 6276 6277 28
5022 6276 6278 28
5023 6276 6279 28
5024 6276 6280 28
5025 6281 6282 28
5026 6281 6283 28
5027 6281 6284 28
5028 6281 6285 28
5029 6286 6287 28
5030 6286 6288 28
5031 6286 6289 28
5032 6286 6290 28
5033 6291 6292 28
5034 6291 6293 28
5035 6291 6294 28
5036 6291 6295 28
5037 6296 6297 28
5038 6296 6298 28
5039 6296 6299 28
5040 6296 6300 28
5041 6301 6302 28
5042 6301 6303 28
5043 6301 6304 28
5044 6301 6305 28
5045 6306 6307 28
5046 6306 6308 28
5047 6306 6309 28
5048 6306 6310 28
5049 6311 6312 28
5050 6311 6313 28
5051 6311 6314 28
5052 6311 6315 28
5053 6316 6317 28
5054 6316 6318 28
5055 6316 6319 28
5056 6316 6320 28
5057 6321 6322 28
5058 6321 6323 28
5059 6321 6324 28
5060 6321 6325 28
5061 6326 6327 28
5062 6326 6328 28
5063 6326 6329 28
5064 6326 6330 28
5065 6331 6332 28
5066 6331 6333 28
5067 6331 6334 28
5068 6331 6335 28
5069 6336 6337 28
5070 6336 6338 28
5071 6336 6339 28
5072 6336 6340 28
5073 6341 6342 28
5074 6341 6343 28
5075 6341 6344 28
5076 6341 6345 28
5077 6346 6347 28
5078 6346 6348 28
5079 6346 6349 28
5080 6346 6350 28
5081 6351 6352 28
5082 6351 6353 28
5083 6351 6354 28
5084 6351 6355 28
5085 6356 6357 28
5086 6356 6358 28
5087 6356 6359 28
5088 6356 6360 28
5089 6361 6362 28
5090 6361 6363 28
5091 6361 6364 28
5092 6361 6365 28
5093 6366 6367 28
5094 6366 6368 28
5095 6366 6369 28
5096 6366 6370 28
5097 6371 6372 28
5098 6371 6373 28
5099 6371 6374 28
5100 6371 6375 28
5101 6376 6377 28
5102 6376 6378 28
5103 6376 6379 28
5104 6376 6380 28
5105 6381 6382 28
5106 6381 6383 28
5107 6381 6384 28
5108 6381 6385 28
5109 6386 6387 28
5110 6386 6388 28
5111 6386 6389 28
5112 6386 6390 28
5113 6391 6392 28
5114 6391 6393 28
5115 6391 6394 28
5116 6391 6395 28
5117 6396 6397 28
5118 6396 6398 28
5119 6396 6399 28
5120 6396 6400 28
5121 6401 6402 28
5122 6401 6403 28
5123 6401 6404 28
5124 6401 6405 28
5125 6406 6407 28
5126 6406 6408 28
5127 6406 6409 28
5128 6406 6410 28
5129 6411 6412 28
5130 6411 6413 28
5131 6411 6414 28
5132 6411 6415 28
5133 6416 6417 28
5134 6416 6418 28
5135 6416 6419 28
5136 6416 6420 28
5137 6421 6422 28
5138 6421 6423 28
5139 6421 6424 28
5140 6421 6425 28
5141 6426 6427 28
5142 6426 6428 28
5143 6426 6429 28
5144 6426 6430 28
5145 6431 6432 28
5146 6431 6433 28
5147 6431 6434 28
5148 6431 6435 28
5149 6436 6437 28
5150 6436 6438 28
5151 6436 6439 28
5152 6436 6440 28
5153 6441 6442 28
5154 6441 6443 28
5155 6441 6444 28
5156 6441 6445 28
5157 6446 6447 28
5158 6446 6448 28
5159 6446 6449 28
5160 6446 6450 28
5161 6451 6452 28
5162 6451 6453 28
5163 6451 6454 28
5164 6451 6455 28
5165 6456 6457 28
5166 6456 6458 28
5167 6456 6459 28
5168 6456 6460 28
5169 6461 6462 28
5170 6461 6463 28
5171 6461 6464 28
5172 6461 6465 28
5173 6466 6467 28
5174 6466 6468 28
5175 6466 6469 28
5176 6466 6470 28
5177 6471 6472 28
5178 6471 6473 28
5179 6471 6474 28
5180 6471 6475 28
5181 6476 6477 28
5182 6476 6478 28
5183 6476 6479 28
5184 6476 6480 28
5185 6481 6482 28
5186 6481 6483 28
5187 6481 6484 28
5188 6481 6485 28
5189 6486 6487 28
5190 6486 6488 28
5191 6486 6489 28
5192 6486 6490 28
5193 6491 6492 28
5194 6491 6493 28
5195 6491 6494 28
5196 6491 6495 28
5197 6496 6497 28
5198 6496 6498 28
5199 6496 6499 28
5200 6496 6500 28
5201 6501 6502 28
5202 6501 6503 28
5203 6501 6504 28
5204 6501 6505 28
5205 6506 6507 28
5206 6506 6508 28
5207 6506 6509 28
5208 6506 6510 28
5209 6511 6512 28
5210 6511 6513 28
5211 6511 6514 28
5212 6511 6515 28
5213 6516 6517 28
5214 6516 6518 28
5215 6516 6519 28
5216 6516 6520 28
5217 6521 6522 28
5218 6521 6523 28
5219 6521 6524 28
5220 6521 6525 28
5221 6526 6527 28
5222 6526 6528 28
5223 6526 6529 28
5224 6526 6530 28
5225 6531 6532 28
5226 6531 6533 28
5227 6531 6534 28
5228 6531 6535 28
5229 6536 6537 28
5230 6536 6538 28
5231 6536 6539 28
5232 6536 6540 28
5233 6541 6542 28
5234 6541 6543 28
5235 6541 6544 28
5236 6541 6545 28
5237 6546 6547 28
5238 6546 6548 28
5239 6546 6549 28
5240 6546 6550 28
5241 6551 6552 28
5242 6551 6553 28
5243 6551 6554 28
5244 6551 6555 28
5245 6556 6557 28
5246 6556 6558 28
5247 6556 6559 28
5248 6556 6560 28
5249 6561 6562 28
5250 6561 6563 28
5251 6561 6564 28
5252 6561 6565 28
5253 6566 6567 28
5254 6566 6568 28
5255 6566 6569 28
5256 6566 6570 28
5257 6571 6572 28
5258 6571 6573 28
5259 6571 6574 28
5260 6571 6575 28
5261 6576 6577 28
5262 6576 6578 28
5263 6576 6579 28
5264 6576 6580 28
5265 6581 6582 28
5266 6581 6583 28
5267 6581 6584 28
5268 6581 6585 28
5269 6586 6587 28
5270 6586 6588 28
5271 6586 6589 28
5272 6586 6590 28
5273 6591 6592 28
5274 6591 6593 28
5275 6591 6594 28
5276 6591 6595 28
5277 6596 6597 28
5278 6596 6598 28
5279 6596 6599 28
5280 6596 6600 28
5281 6601 6602 28
5282 6601 6603 28
5283 6601 6604 28
5284 6601 6605 28
5285 6606 6607 28
5286 6606 6608 28
5287 6606 6609 28
5288 6606 6610 28
5289 6611 6612 28
5290 6611 6613 28
5291 6611 6614 28
5292 6611 6615 28
5293 6616 6617 28
5294 6616 6618 28
5295 6616 6619 28
5296 6616 6620 28
5297 6621 6622 28
5298 6621 6623 28
5299 6621 6624 28
5300 6621 6625 28
5301 6626 6627 28
5302 6626 6628 28
5303 6626 6629 28
5304 6626 6630 28
5305 6631 6632 28
5306 6631 6633 28
5307 6631 6634 28
5308 6631 6635 28
5309 6636 6637 28
5310 6636 6638 28
5311 6636 6639 28
5312 6636 6640 28
5313 6641 6642 28
5314 6641 6643 28
5315 6641 6644 28
5316 6641 6645 28
5317 6646 6647 28
5318 6646 6648 28
5319 6646 6649 28
5320 6646 6650 28
5321 6651 6652 28
5322 6651 6653 28
5323 6651 6654 28
5324 6651 6655 28
5325 6656 6657 28
5326 6656 6658 28
5327 6656 6659 28
5328 6656 6660 28
5329 6661 6662 28
5330 6661 6663 28
5331 6661 6664 28
5332 6661 6665 28
5333 6666 6667 28
5334 6666 6668 28
5335 6666 6669 28
5336 6666 6670 28
5337 6671 6672 28
5338 6671 6673 28
5339 6671 6674 28
5340 6671 6675 28
5341 6676 6677 28
5342 6676 6678 28
5343 6676 6679 28
5344 6676 6680 28
5345 6681 6682 28
5346 6681 6683 28
5347 6681 6684 28
5348 6681 6685 28
5349 6686 6687 28
5350 6686 6688 28
5351 6686 6689 28
5352 6686 6690 28
5353 6691 6692 28
5354 6691 6693 28
5355 6691 6694 28
5356 6691 6695 28
5357 6696 6697 28
5358 6696 6698 28
5359 6696 6699 28
5360 6696 6700 28
5361 6701 6702 28
5362 6701 6703 28
5363 6701 6704 28
5364 6701 6705 28
5365 6706 6707 28
5366 6706 6708 28
5367 6706 6709 28
5368 6706 6710 28
5369 6711 6712 28
5370 6711 6713 28
5371 6711 6714 28
5372 6711 6715 28
5373 6716 6717 28
5374 6716 6718 28
5375 6716 6719 28
5376 6716 6720 28
5377 6721 6722 28
5378 6721 6723 28
5379 6721 6724 28
5380 6721 6725 28
5381 6726 6727 28
5382 6726 6728 28
5383 6726 6729 28
5384 6726 6730 28
5385 6731 6732 28
5386 6731 6733 28
5387 6731 6734 28
5388 6731 6735 28
5389 6736 6737 28
5390 6736 6738 28
5391 6736 6739 28
5392 6736 6740 28
5393 6741 6742 28
5394 6741 6743 28
5395 6741 6744 28
5396 6741 6745 28
5397 6746 6747 28
5398 6746 6748 28
5399 6746 6749 28
5400 6746 6750 28
5401 6751 6752 28
5402 6751 6753 28
5403 6751 6754 28
5404 6751 6755 28
5405 6756 6757 28
5406 6756 6758 28
5407 6756 6759 28
5408 6756 6760 28
5409 6761 6762 28
5410 6761 6763 28
5411 6761 6764 28
5412 6761 6765 28
5413 6766 6767 28
5414 6766 6768 28
5415 6766 6769 28
5416 6766 6770 28
5417 6771 6772 28
5418 6771 6773 28
5419 6771 6774 28
5420 6771 6775 28
5421 6776 6777 28
5422 6776 6778 28
5423 6776 6779 28
5424 6776 6780 28
5425 6781 6782 28
5426 6781 6783 28
5427 6781 6784 28
5428 6781 6785 28
5429 6786 6787 28
5430 6786 6788 28
5431 6786 6789 28
5432 6786 6790 28
5433 6791 6792 28
5434 6791 6793 28
5435 6791 6794 28
5436 6791 6795 28
5437 6796 6797 28
5438 6796 6798 28
5439 6796 6799 28
5440 6796 6800 28
5441 6801 6802 28
5442 6801 6803 28
5443 6801 6804 28
5444 6801 6805 28
5445 6806 6807 28
5446 6806 6808 28
5447 6806 6809 28
5448 6806 6810 28
5449 6811 6812 28
5450 6811 6813 28
5451 6811 6814 28
5452 6811 6815 28
5453 6816 6817 28
5454 6816 6818 28
5455 6816 6819 28
5456 6816 6820 28
5457 6821 6822 28
5458 6821 6823 28
5459 6821 6824 28
5460 6821 6825 28
5461 6826 6827 28
5462 6826 6828 28
5463 6826 6829 28
5464 6826 6830 28
5465 6831 6832 28
5466 6831 6833 28
5467 6831 6834 28
5468 6831 6835 28
5469 6836 6837 28
5470 6836 6838 28
5471 6836 6839 28
5472 6836 6840 28
5473 6841 6842 28
5474 6841 6843 28
5475 6841 6844 28
5476 6841 6845 28
5477 6846 6847 28
5478 6846 6848 28
5479 6846 6849 28
5480 6846 6850 28
5481 6851 6852 28
5482 6851 6853 28
5483 6851 6854 28
5484 6851 6855 28
5485 6856 6857 28
5486 6856 6858 28
5487 6856 6859 28
5488 6856 6860 28
5489 6861 6862 28
5490 6861 6863 28
5491 6861 6864 28
5492 6861 6865 28
5493 6866 6867 28
5494 6866 6868 28
5495 6866 6869 28
5496 6866 6870 28
5497 6871 6872 28
5498 6871 6873 28
5499 6871 6874 28
5500 6871 6875 28
5501 6876 6877 28
5502 6876 6878 28
5503 6876 6879 28
5504 6876 6880 28
5505 6881 6882 28
5506 6881 6883 28
5507 6881 6884 28
5508 6881 6885 28
5509 6886 6887 28
5510 6886 6888 28
5511 6886 6889 28
5512 6886 6890 28
5513 6891 6892 28
5514 6891 6893 28
5515 6891 6894 28
5516 6891 6895 28
5517 6896 6897 28
5518 6896 6898 28
5519 6896 6899 28
5520 6896 6900 28
5521 6901 6902 28
5522 6901 6903 28
5523 6901 6904 28
5524 6901 6905 28
5525 6906 6907 28
5526 6906 6908 28
5527 6906 6909 28
5528 6906 6910 28
5529 6911 6912 28
5530 6911 6913 28
5531 6911 6914 28
5532 6911 6915 28
5533 6916 6917 28
5534 6916 6918 28
5535 6916 6919 28
5536 6916 6920 28
5537 6921 6922 28
5538 6921 6923 28
5539 6921 6924 28
5540 6921 6925 28
5541 6926 6927 28
5542 6926 6928 28
5543 6926 6929 28
5544 6926 6930 28
5545 6931 6932 28
5546 6931 6933 28
5547 6931 6934 28
5548 6931 6935 28
5549 6936 6937 28
5550 6936 6938 28
5551 6936 6939 28
5552 6936 6940 28
5553 6941 6942 28
5554 6941 6943 28
5555 6941 6944 28
5556 6941 6945 28
5557 6946 6947 28
5558 6946 6948 28
5559 6946 6949 28
5560 6946 6950 28
5561 6951 6952 28
5562 6951 6953 28
5563 6951 6954 28
5564 6951 6955 28
5565 6956 6957 28
5566 6956 6958 28
5567 6956 6959 28
5568 6956 6960 28
5569 6961 6962 28
5570 6961 6963 28
5571 6961 6964 28
5572 6961 6965 28
5573 6966 6967 28
5574 6966 6968 28
5575 6966 6969 28
5576 6966 6970 28
5577 6971 6972 28
5578 6971 6973 28
5579 6971 6974 28
5580 6971 6975 28
5581 6976 6977 28
5582 6976 6978 28
5583 6976 6979 28
5584 6976 6980 28
5585 6981 6982 28
5586 6981 6983 28
5587 6981 6984 28
5588 6981 6985 28
5589 6986 6987 28
5590 6986 6988 28
5591 6986 6989 28
5592 6986 6990 28
5593 6991 6992 28
5594 6991 6993 28
5595 6991 6994 28
5596 6991 6995 28
5597 6996 6997 28
5598 6996 6998 28
5599 6996 6999 28
5600 6996 7000 28
5601 7001 7002 28
5602 7001 7003 28
5603 7001 7004 28
5604 7001 7005 28
5605 7006 7007 28
5606 7006 7008 28
5607 7006 7009 28
5608 7006 7010 28
5609 7011 7012 28
5610 7011 7013 28
5611 7011 7014 28
5612 7011 7015 28
5613 7016 7017 28
5614 7016 7018 28
5615 7016 7019 28
5616 7016 7020 28
5617 7021 7022 28
5618 7021 7023 28
5619 7021 7024 28
5620 7021 7025 28
5621 7026 7027 28
5622 7026 7028 28
5623 7026 7029 28
5624 7026 7030 28
5625 7031 7032 28
5626 7031 7033 28
5627 7031 7034 28
5628 7031 7035 28
5629 7036 7037 28
5630 7036 7038 28
5631 7036 7039 28
5632 7036 7040 28
5633 7041 7042 28
5634 7041 7043 28
5635 7041 7044 28
5636 7041 7045 28
5637 7046 7047 28
5638 7046 7048 28
5639 7046 7049 28
5640 7046 7050 28
5641 7051 7052 28
5642 7051 7053 28
5643 7051 7054 28
5644 7051 7055 28
5645 7056 7057 28
5646 7056 7058 28
5647 7056 7059 28
5648 7056 7060 28
5649 7061 7062 28
5650 7061 7063 28
5651 7061 7064 28
5652 7061 7065 28
5653 7066 7067 28
5654 7066 7068 28
5655 7066 7069 28
5656 7066 7070 28
5657 7071 7072 28
5658 7071 7073 28
5659 7071 7074 28
5660 7071 7075 28
5661 7076 7077 28
5662 7076 7078 28
5663 7076 7079 28
5664 7076 7080 28
5665 7081 7082 28
5666 7081 7083 28
5667 7081 7084 28
5668 7081 7085 28
5669 7086 7087 28
5670 7086 7088 28
5671 7086 7089 28
5672 7086 7090 28
5673 7091 7092 28
5674 7091 7093 28
5675 7091 7094 28
5676 7091 7095 28
5677 7096 7097 28
5678 7096 7098 28
5679 7096 7099 28
5680 7096 7100 28
5681 7101 7102 28
5682 7101 7103 28
5683 7101 7104 28
5684 7101 7105 28
5685 7106 7107 28
5686 7106 7108 28
5687 7106 7109 28
5688 7106 7110 28
5689 7111 7112 28
5690 7111 7113 28
5691 7111 7114 28
5692 7111 7115 28
5693 7116 7117 28
5694 7116 7118 28
5695 7116 7119 28
5696 7116 7120 28
5697 7121 7122 28
5698 7121 7123 28
5699 7121 7124 28
5700 7121 7125 28
5701 7126 7127 28
5702 7126 7128 28
5703 7126 7129 28
5704 7126 7130 28
5705 7131 7132 28
5706 7131 7133 28
5707 7131 7134 28
5708 7131 7135 28
5709 7136 7137 28
5710 7136 7138 28
5711 7136 7139 28
5712 7136 7140 28
5713 7141 7142 28
5714 7141 7143 28
5715 7141 7144 28
5716 7141 7145 28
5717 7146 7147 28
5718 7146 7148 28
5719 7146 7149 28
5720 7146 7150 28
5721 7151 7152 28
5722 7151 7153 28
5723 7151 7154 28
5724 7151 7155 28
5725 7156 7157 28
5726 7156 7158 28
5727 7156 7159 28
5728 7156 7160 28
5729 7161 7162 28
5730 7161 7163 28
5731 7161 7164 28
5732 7161 7165 28
5733 7166 7167 28
5734 7166 7168 28
5735 7166 7169 28
5736 7166 7170 28
5737 7171 7172 28
5738 7171 7173 28
5739 7171 7174 28
5740 7171 7175 28
5741 7176 7177 28
5742 7176 7178 28
5743 7176 7179 28
5744 7176 7180 28
5745 7181 7182 28
5746 7181 7183 28
5747 7181 7184 28
5748 7181 7185 28
5749 7186 7187 28
5750 7186 7188 28
5751 7186 7189 28
5752 7186 7190 28
5753 7191 7192 28
5754 7191 7193 28
5755 7191 7194 28
5756 7191 7195 28
5757 7196 7197 28
5758 7196 7198 28
5759 7196 7199 28
5760 7196 7200 28
5761 7201 7202 28
5762 7201 7203 28
5763 7201 7204 28
5764 7201 7205 28
5765 7206 7207 28
5766 7206 7208 28
5767 7206 7209 28
5768 7206 7210 28
5769 7211 7212 28
5770 7211 7213 28
5771 7211 7214 28
5772 7211 7215 28
5773 7216 7217 28
5774 7216 7218 28
5775 7216 7219 28
5776 7216 7220 28
5777 7221 7222 28
5778 7221 7223 28
5779 7221 7224 28
5780 7221 7225 28
5781 7226 7227 28
5782 7226 7228 28
5783 7226 7229 28
5784 7226 7230 28
5785 7231 7232 28
5786 7231 7233 28
5787 7231 7234 28
5788 7231 7235 28
5789 7236 7237 28
5790 7236 7238 28
5791 7236 7239 28
5792 7236 7240 28
5793 7241 7242 28
5794 7241 7243 28
5795 7241 7244 28
5796 7241 7245 28
5797 7246 7247 28
5798 7246 7248 28
5799 7246 7249 28
5800 7246 7250 28
5801 7251 7252 28
5802 7251 7253 28
5803 7251 7254 28
5804 7251 7255 28
5805 7256 7257 28
5806 7256 7258 28
5807 7256 7259 28
5808 7256 7260 28
5809 7261 7262 28
5810 7261 7263 28
5811 7261 7264 28
5812 7261 7265 28
5813 7266 7267 28
5814 7266 7268 28
5815 7266 7269 28
5816 7266 7270 28
5817 7271 7272 28
5818 7271 7273 28
5819 7271 7274 28
5820 7271 7275 28
5821 7276 7277 28
5822 7276 7278 28
5823 7276 7279 28
5824 7276 7280 28
5825 7281 7282 28
5826 7281 7283 28
5827 7281 7284 28
5828 7281 7285 28
5829 7286 7287 28
5830 7286 7288 28
5831 7286 7289 28
5832 7286 7290 28
5833 7291 7292 28
5834 7291 7293 28
5835 7291 7294 28
5836 7291 7295 28
5837 7296 7297 28
5838 7296 7298 28
5839 7296 7299 28
5840 7296 7300 28
5841 7301 7302 28
5842 7301 7303 28
5843 7301 7304 28
5844 7301 7305 28
5845 7306 7307 28
5846 7306 7308 28
5847 7306 7309 28
5848 7306 7310 28
5849 7311 7312 28
5850 7311 7313 28
5851 7311 7314 28
5852 7311 7315 28
5853 7316 7317 28
5854 7316 7318 28
5855 7316 7319 28
5856 7316 7320 28
5857 7321 7322 28
5858 7321 7323 28
5859 7321 7324 28
5860 7321 7325 28
5861 7326 7327 28
5862 7326 7328 28
5863 7326 7329 28
5864 7326 7330 28
5865 7331 7332 28
5866 7331 7333 28
5867 7331 7334 28
5868 7331 7335 28
5869 7336 7337 28
5870 7336 7338 28
5871 7336 7339 28
5872 7336 7340 28
5873 7341 7342 28
5874 7341 7343 28
5875 7341 7344 28
5876 7341 7345 28
5877 7346 7347 28
5878 7346 7348 28
5879 7346 7349 28
5880 7346 7350 28
5881 7351 7352 28
5882 7351 7353 28
5883 7351 7354 28
5884 7351 7355 28
5885 7356 7357 28
5886 7356 7358 28
5887 7356 7359 28
5888 7356 7360 28
5889 7361 7362 28
5890 7361 7363 28
5891 7361 7364 28
5892 7361 7365 28
5893 7366 7367 28
5894 7366 7368 28
5895 7366 7369 28
5896 7366 7370 28
5897 7371 7372 28
5898 7371 7373 28
5899 7371 7374 28
5900 7371 7375 28
5901 7376 7377 28
5902 7376 7378 28
5903 7376 7379 28
5904 7376 7380 28
5905 7381 7382 28
5906 7381 7383 28
5907 7381 7384 28
5908 7381 7385 28
5909 7386 7387 28
5910 7386 7388 28
5911 7386 7389 28
5912 7386 7390 28
5913 7391 7392 28
5914 7391 7393 28
5915 7391 7394 28
5916 7391 7395 28
5917 7396 7397 28
5918 7396 7398 28
5919 7396 7399 28
5920 7396 7400 28
5921 7401 7402 28
5922 7401 7403 28
5923 7401 7404 28
5924 7401 7405 28
5925 7406 7407 28
5926 7406 7408 28
5927 7406 7409 28
5928 7406 7410 28
5929 7411 7412 28
5930 7411 7413 28
5931 7411 7414 28
5932 7411 7415 28
5933 7416 7417 28
5934 7416 7418 28
5935 7416 7419 28
5936 7416 7420 28
5937 7421 7422 28
5938 7421 7423 28
5939 7421 7424 28
5940 7421 7425 28
5941 7426 7427 28
5942 7426 7428 28
5943 7426 7429 28
5944 7426 7430 28
5945 7431 7432 28
5946 7431 7433 28
5947 7431 7434 28
5948 7431 7435 28
5949 7436 7437 28
5950 7436 7438 28
5951 7436 7439 28
5952 7436 7440 28
5953 7441 7442 28
5954 7441 7443 28
5955 7441 7444 28
5956 7441 7445 28
5957 7446 7447 28
5958 7446 7448 28
5959 7446 7449 28
5960 7446 7450 28
5961 7451 7452 28
5962 7451 7453 28
5963 7451 7454 28
5964 7451 7455 28
5965 7456 7457 28
5966 7456 7458 28
5967 7456 7459 28
5968 7456 7460 28
5969 7461 7462 28
5970 7461 7463 28
5971 7461 7464 28
5972 7461 7465 28
5973 7466 7467 28
5974 7466 7468 28
5975 7466 7469 28
5976 7466 7470 28
5977 7471 7472 28
5978 7471 7473 28
5979 7471 7474 28
5980 7471 7475 28
5981 7476 7477 28
5982 7476 7478 28
5983 7476 7479 28
5984 7476 7480 28
5985 7481 7482 28
5986 7481 7483 28
5987 7481 7484 28
5988 7481 7485 28
5989 7486 7487 28
5990 7486 7488 28
5991 7486 7489 28
5992 7486 7490 28
5993 7491 7492 28
5994 7491 7493 28
5995 7491 7494 28
5996 7491 7495 28
5997 7496 7497 28
5998 7496 7498 28
5999 7496 7499 28
6000 7496 7500 28
6001 7501 7502 28
6002 7501 7503 28
6003 7501 7504 28
6004 7501 7505 28
6005 7506 7507 28
6006 7506 7508 28
6007 7506 7509 28
6008 7506 7510 28
6009 7511 7512 28
6010 7511 7513 28
6011 7511 7514 28
6012 7511 7515 28
6013 7516 7517 28
6014 7516 7518 28
6015 7516 7519 28
6016 7516 7520 28
6017 7521 7522 28
6018 7521 7523 28
6019 7521 7524 28
6020 7521 7525 28
6021 7526 7527 28
6022 7526 7528 28
6023 7526 7529 28
6024 7526 7530 28
6025 7531 7532 28
6026 7531 7533 28
6027 7531 7534 28
6028 7531 7535 28
6029 7536 7537 28
6030 7536 7538 28
6031 7536 7539 28
6032 7536 7540 28
6033 7541 7542 28
6034 7541 7543 28
6035 7541 7544 28
6036 7541 7545 28
6037 7546 7547 28
6038 7546 7548 28
6039 7546 7549 28
6040 7546 7550 28
6041 7551 7552 28
6042 7551 7553 28
6043 7551 7554 28
6044 7551 7555 28
6045 7556 7557 28
6046 7556 7558 28
6047 7556 7559 28
6048 7556 7560 28
6049 7561 7562 28
6050 7561 7563 28
6051 7561 7564 28
6052 7561 7565 28
6053 7566 7567 28
6054 7566 7568 28
6055 7566 7569 28
6056 7566 7570 28
6057 7571 7572 28
6058 7571 7573 28
6059 7571 7574 28
6060 7571 7575 28
6061 7576 7577 28
6062 7576 7578 28
6063 7576 7579 28
6064 7576 7580 28
6065 7581 7582 28
6066 7581 7583 28
6067 7581 7584 28
6068 7581 7585 28
6069 7586 7587 28
6070 7586 7588 28
6071 7586 7589 28
6072 7586 7590 28
6073 7591 7592 28
6074 7591 7593 28
6075 7591 7594 28
6076 7591 7595 28
6077 7596 7597 28
6078 7596 7598 28
6079 7596 7599 28
6080 7596 7600 28
6081 7601 7602 28
6082 7601 7603 28
6083 7601 7604 28
6084 7601 7605 28
6085 7606 7607 28
6086 7606 7608 28
6087 7606 7609 28
6088 7606 7610 28
6089 7611 7612 28
6090 7611 7613 28
6091 7611 7614 28
6092 7611 7615 28
6093 7616 7617 28
6094 7616 7618 28
6095 7616 7619 28
6096 7616 7620 28
6097 7621 7622 28
6098 7621 7623 28
6099 7621 7624 28
6100 7621 7625 28
6101 7626 7627 28
6102 7626 7628 28
6103 7626 7629 28
6104 7626 7630 28
6105 7631 7632 28
6106 7631 7633 28
6107 7631 7634 28
6108 7631 7635 28
6109 7636 7637 28
6110 7636 7638 28
6111 7636 7639 28
6112 7636 7640 28
6113 7641 7642 28
6114 7641 7643 28
6115 7641 7644 28
6116 7641 7645 28
6117 7646 7647 28
6118 7646 7648 28
6119 7646 7649 28
6120 7646 7650 28
6121 7651 7652 28
6122 7651 7653 28
6123 7651 7654 28
6124 7651 7655 28
6125 7656 7657 28
6126 7656 7658 28
6127 7656 7659 28
6128 7656 7660 28
6129 7661 7662 28
6130 7661 7663 28
6131 7661 7664 28
6132 7661 7665 28
6133 7666 7667 28
6134 7666 7668 28
6135 7666 7669 28
6136 7666 7670 28
6137 7671 7672 28
6138 7671 7673 28
6139 7671 7674 28
6140 7671 7675 28
6141 7676 7677 28
6142 7676 7678 28
6143 7676 7679 28
6144 7676 7680 28
6145 7681 7682 28
6146 7681 7683 28
6147 7681 7684 28
6148 7681 7685 28
6149 7686 7687 28
6150 7686 7688 28
6151 7686 7689 28
6152 7686 7690 28
6153 7691 7692 28
6154 7691 7693 28
6155 7691 7694 28
6156 7691 7695 28
6157 7696 7697 28
6158 7696 7698 28
6159 7696 7699 28
6160 7696 7700 28
6161 7701 7702 28
6162 7701 7703 28
6163 7701 7704 28
6164 7701 7705 28
6165 7706 7707 28
6166 7706 7708 28
6167 7706 7709 28
6168 7706 7710 28
6169 7711 7712 28
6170 7711 7713 28
6171 7711 7714 28
6172 7711 7715 28
6173 7716 7717 28
6174 7716 7718 28
6175 7716 7719 28
6176 7716 7720 28
6177 7721 7722 28
6178 7721 7723 28
6179 7721 7724 28
6180 7721 7725 28
6181 7726 7727 28
6182 7726 7728 28
6183 7726 7729 28
6184 7726 7730 28
6185 7731 7732 28
6186 7731 7733 28
6187 7731 7734 28
6188 7731 7735 28
6189 7736 7737 28
6190 7736 7738 28
6191 7736 7739 28
6192 7736 7740 28
6193 7741 7742 28
6194 7741 7743 28
6195 7741 7744 28
6196 7741 7745 28
6197 7746 7747 28
6198 7746 7748 28
6199 7746 7749 28
6200 7746 7750 28
6201 7751 7752 28
6202 7751 7753 28
6203 7751 7754 28
6204 7751 7755 28
6205 7756 7757 28
6206 7756 7758 28
6207 7756 7759 28
6208 7756 7760 28
6209 7761 7762 28
6210 7761 7763 28
6211 7761 7764 28
6212 7761 7765 28
6213 7766 7767 28
6214 7766 7768 28
6215 7766 7769 28
6216 7766 7770 28
6217 7771 7772 28
6218 7771 7773 28
6219 7771 7774 28
6220 7771 7775 28
6221 7776 7777 28
6222 7776 7778 28
6223 7776 7779 28
6224 7776 7780 28
6225 7781 7782 28
6226 7781 7783 28
6227 7781 7784 28
6228 7781 7785 28
6229 7786 7787 28
6230 7786 7788 28
6231 7786 7789 28
6232 7786 7790 28
6233 7791 7792 28
6234 7791 7793 28
6235 7791 7794 28
6236 7791 7795 28
6237 7796 7797 28
6238 7796 7798 28
6239 7796 7799 28
6240 7796 7800 28
6241 7801 7802 28
6242 7801 7803 28
6243 7801 7804 28
6244 7801 7805 28
6245 7806 7807 28
6246 7806 7808 28
6247 7806 7809 28
6248 7806 7810 28
6249 7811 7812 28
6250 7811 7813 28
6251 7811 7814 28
6252 7811 7815 28
6253 7816 7817 28
6254 7816 7818 28
6255 7816 7819 28
6256 7816 7820 28
6257 7821 7822 28
6258 7821 7823 28
6259 7821 7824 28
6260 7821 7825 28
6261 7826 7827 28
6262 7826 7828 28
6263 7826 7829 28
6264 7826 7830 28
6265 7831 7832 28
6266 7831 7833 28
6267 7831 7834 28
6268 7831 7835 28
6269 7836 7837 28
6270 7836 7838 28
6271 7836 7839 28
6272 7836 7840 28
6273 7841 7842 28
6274 7841 7843 28
6275 7841 7844 28
6276 7841 7845 28
6277 7846 7847 28
6278 7846 7848 28
6279 7846 7849 28
6280 7846 7850 28
6281 7851 7852 28
6282 7851 7853 28
6283 7851 7854 28
6284 7851 7855 28
6285 7856 7857 28
6286 7856 7858 28
6287 7856 7859 28
6288 7856 7860 28
6289 7861 7862 28
6290 7861 7863 28
6291 7861 7864 28
6292 7861 7865 28
6293 7866 7867 28
6294 7866 7868 28
6295 7866 7869 28
6296 7866 7870 28
6297 7871 7872 28
6298 7871 7873 28
6299 7871 7874 28
6300 7871 7875 28
6301 7876 7877 28
6302 7876 7878 28
6303 7876 7879 28
6304 7876 7880 28
6305 7881 7882 28
6306 7881 7883 28
6307 7881 7884 28
6308 7881 7885 28
6309 7886 7887 28
6310 7886 7888 28
6311 7886 7889 28
6312 7886 7890 28
6313 7891 7892 28
6314 7891 7893 28
6315 7891 7894 28
6316 7891 7895 28
6317 7896 7897 28
6318 7896 7898 28
6319 7896 7899 28
6320 7896 7900 28
6321 7901 7902 28
6322 7901 7903 28
6323 7901 7904 28
6324 7901 7905 28
6325 7906 7907 28
6326 7906 7908 28
6327 7906 7909 28
6328 7906 7910 28
6329 7911 7912 28
6330 7911 7913 28
6331 7911 7914 28
6332 7911 7915 28
6333 7916 7917 28
6334 7916 7918 28
6335 7916 7919 28
6336 7916 7920 28
6337 7921 7922 28
6338 7921 7923 28
6339 7921 7924 28
6340 7921 7925 28
6341 7926 7927 28
6342 7926 7928 28
6343 7926 7929 28
6344 7926 7930 28
6345 7931 7932 28
6346 7931 7933 28
6347 7931 7934 28
6348 7931 7935 28
6349 7936 7937 28
6350 7936 7938 28
6351 7936 7939 28
6352 7936 7940 28
6353 7941 7942 28
6354 7941 7943 28
6355 7941 7944 28
6356 7941 7945 28
6357 7946 7947 28
6358 7946 7948 28
6359 7946 7949 28
6360 7946 7950 28
6361 7951 7952 28
6362 7951 7953 28
6363 7951 7954 28
6364 7951 7955 28
6365 7956 7957 28
6366 7956 7958 28
6367 7956 7959 28
6368 7956 7960 28
6369 7961 7962 28
6370 7961 7963 28
6371 7961 7964 28
6372 7961 7965 28
6373 7966 7967 28
6374 7966 7968 28
6375 7966 7969 28
6376 7966 7970 28
6377 7971 7972 28
6378 7971 7973 28
6379 7971 7974 28
6380 7971 7975 28
6381 7976 7977 28
6382 7976 7978 28
6383 7976 7979 28
6384 7976 7980 28
6385 7981 7982 28
6386 7981 7983 28
6387 7981 7984 28
6388 7981 7985 28
6389 7986 7987 28
6390 7986 7988 28
6391 7986 7989 28
6392 7986 7990 28
6393 7991 7992 28
6394 7991 7993 28
6395 7991 7994 28
6396 7991 7995 28
6397 7996 7997 28
6398 7996 7998 28
6399 7996 7999 28
6400 7996 8000 28
6401 8001 8002 28
6402 8001 8003 28
6403 8001 8004 28
6404 8001 8005 28
6405 8006 8007 28
6406 8006 8008 28
6407 8006 8009 28
6408 8006 8010 28
6409 8011 8012 28
6410 8011 8013 28
6411 8011 8014 28
6412 8011 8015 28
6413 8016 8017 28
6414 8016 8018 28
6415 8016 8019 28
6416 8016 8020 28
6417 8021 8022 28
6418 8021 8023 28
6419 8021 8024 28
6420 8021 8025 28
6421 8026 8027 28
6422 8026 8028 28
6423 8026 8029 28
6424 8026 8030 28
6425 8031 8032 28
6426 8031 8033 28
6427 8031 8034 28
6428 8031 8035 28
6429 8036 8037 28
6430 8036 8038 28
6431 8036 8039 28
6432 8036 8040 28
6433 8041 8042 28
6434 8041 8043 28
6435 8041 8044 28
6436 8041 8045 28
6437 8046 8047 28
6438 8046 8048 28
6439 8046 8049 28
6440 8046 8050 28
6441 8051 8052 28
6442 8051 8053 28
6443 8051 8054 28
6444 8051 8055 28
6445 8056 8057 28
6446 8056 8058 28
6447 8056 8059 28
6448 8056 8060 28
6449 8061 8062 28
6450 8061 8063 28
6451 8061 8064 28
6452 8061 8065 28
6453 8066 8067 28
6454 8066 8068 28
6455 8066 8069 28
6456 8066 8070 28
6457 8071 8072 28
6458 8071 8073 28
6459 8071 8074 28
6460 8071 8075 28
6461 8076 8077 28
6462 8076 8078 28
6463 8076 8079 28
6464 8076 8080 28
6465 8081 8082 28
6466 8081 8083 28
6467 8081 8084 28
6468 8081 8085 28
6469 8086 8087 28
6470 8086 8088 28
6471 8086 8089 28
6472 8086 8090 28
6473 8091 8092 28
6474 8091 8093 28
6475 8091 8094 28
6476 8091 8095 28
6477 8096 8097 28
6478 8096 8098 28
6479 8096 8099 28
6480 8096 8100 28
6481 8101 8102 28
6482 8101 8103 28
6483 8101 8104 28
6484 8101 8105 28
6485 8106 8107 28
6486 8106 8108 28
6487 8106 8109 28
6488 8106 8110 28
6489 8111 8112 28
6490 8111 8113 28
6491 8111 8114 28
6492 8111 8115 28
6493 8116 8117 28
6494 8116 8118 28
6495 8116 8119 28
6496 8116 8120 28
6497 8121 8122 28
6498 8121 8123 28
6499 8121 8124 28
6500 8121 8125 28
6501 8126 8127 28
6502 8126 8128 28
6503 8126 8129 28
6504 8126 8130 28
6505 8131 8132 28
6506 8131 8133 28
6507 8131 8134 28
6508 8131 8135 28
6509 8136 8137 28
6510 8136 8138 28
6511 8136 8139 28
6512 8136 8140 28
6513 8141 8142 28
6514 8141 8143 28
6515 8141 8144 28
6516 8141 8145 28
6517 8146 8147 28
6518 8146 8148 28
6519 8146 8149 28
6520 8146 8150 28
6521 8151 8152 28
6522 8151 8153 28
6523 8151 8154 28
6524 8151 8155 28
6525 8156 8157 28
6526 8156 8158 28
6527 8156 8159 28
6528 8156 8160 28
6529 8161 8162 28
6530 8161 8163 28
6531 8161 8164 28
6532 8161 8165 28
6533 8166 8167 28
6534 8166 8168 28
6535 8166 8169 28
6536 8166 8170 28
6537 8171 8172 28
6538 8171 8173 28
6539 8171 8174 28
6540 8171 8175 28
6541 8176 8177 28
6542 8176 8178 28
6543 8176 8179 28
6544 8176 8180 28
6545 8181 8182 28
6546 8181 8183 28
6547 8181 8184 28
6548 8181 8185 28
6549 8186 8187 28
6550 8186 8188 28
6551 8186 8189 28
6552 8186 8190 28
6553 8191 8192 28
6554 8191 8193 28
6555 8191 8194 28
6556 8191 8195 28
6557 8196 8197 28
6558 8196 8198 28
6559 8196 8199 28
6560 8196 8200 28
6561 8201 8202 28
6562 8201 8203 28
6563 8201 8204 28
6564 8201 8205 28
6565 8206 8207 28
6566 8206 8208 28
6567 8206 8209 28
6568 8206 8210 28
6569 8211 8212 28
6570 8211 8213 28
6571 8211 8214 28
6572 8211 8215 28
6573 8216 8217 28
6574 8216 8218 28
6575 8216 8219 28
6576 8216 8220 28
6577 8221 8222 28
6578 8221 8223 28
6579 8221 8224 28
6580 8221 8225 28
6581 8226 8227 28
6582 8226 8228 28
6583 8226 8229 28
6584 8226 8230 28
6585 8231 8232 28
6586 8231 8233 28
6587 8231 8234 28
6588 8231 8235 28
6589 8236 8237 28
6590 8236 8238 28
6591 8236 8239 28
6592 8236 8240 28
6593 8241 8242 28
6594 8241 8243 28
6595 8241 8244 28
6596 8241 8245 28
6597 8246 8247 28
6598 8246 8248 28
6599 8246 8249 28
6600 8246 8250 28
6601 8251 8252 28
6602 8251 8253 28
6603 8251 8254 28
6604 8251 8255 28
6605 8256 8257 28
6606 8256 8258 28
6607 8256 8259 28
6608 8256 8260 28
6609 8261 8262 28
6610 8261 8263 28
6611 8261 8264 28
6612 8261 8265 28
6613 8266 8267 28
6614 8266 8268 28
6615 8266 8269 28
6616 8266 8270 28
6617 8271 8272 28
6618 8271 8273 28
6619 8271 8274 28
6620 8271 8275 28
6621 8276 8277 28
6622 8276 8278 28
6623 8276 8279 28
6624 8276 8280 28
6625 8281 8282 28
6626 8281 8283 28
6627 8281 8284 28
6628 8281 8285 28
6629 8286 8287 28
6630 8286 8288 28
6631 8286 8289 28
6632 8286 8290 28
6633 8291 8292 28
6634 8291 8293 28
6635 8291 8294 28
6636 8291 8295 28
6637 8296 8297 28
6638 8296 8298 28
6639 8296 8299 28
6640 8296 8300 28
6641 8301 8302 28
6642 8301 8303 28
6643 8301 8304 28
6644 8301 8305 28
6645 8306 8307 28
6646 8306 8308 28
6647 8306 8309 28
6648 8306 8310 28
6649 8311 8312 28
6650 8311 8313 28
6651 8311 8314 28
6652 8311 8315 28
6653 8316 8317 28
6654 8316 8318 28
6655 8316 8319 28
6656 8316 8320 28
6657 8321 8322 28
6658 8321 8323 28
6659 8321 8324 28
6660 8321 8325 28
6661 8326 8327 28
6662 8326 8328 28
6663 8326 8329 28
6664 8326 8330 28
6665 8331 8332 28
6666 8331 8333 28
6667 8331 8334 28
6668 8331 8335 28
6669 8336 8337 28
6670 8336 8338 28
6671 8336 8339 28
6672 8336 8340 28
6673 8341 8342 28
6674 8341 8343 28
6675 8341 8344 28
6676 8341 8345 28
6677 8346 8347 28
6678 8346 8348 28
6679 8346 8349 28
6680 8346 8350 28
6681 8351 8352 28
6682 8351 8353 28
6683 8351 8354 28
6684 8351 8355 28
6685 8356 8357 28
6686 8356 8358 28
6687 8356 8359 28
6688 8356 8360 28
6689 8361 8362 28
6690 8361 8363 28
6691 8361 8364 28
6692 8361 8365 28
6693 8366 8367 28
6694 8366 8368 28
6695 8366 8369 28
6696 8366 8370 28
6697 8371 8372 28
6698 8371 8373 28
6699 8371 8374 28
6700 8371 8375 28
6701 8376 8377 28
6702 8376 8378 28
6703 8376 8379 28
6704 8376 8380 28
6705 8381 8382 28
6706 8381 8383 28
6707 8381 8384 28
6708 8381 8385 28
6709 8386 8387 28
6710 8386 8388 28
6711 8386 8389 28
6712 8386 8390 28
6713 8391 8392 28
6714 8391 8393 28
6715 8391 8394 28
6716 8391 8395 28
6717 8396 8397 28
6718 8396 8398 28
6719 8396 8399 28
6720 8396 8400 28
6721 8401 8402 28
6722 8401 8403 28
6723 8401 8404 28
6724 8401 8405 28
6725 8406 8407 28
6726 8406 8408 28
6727 8406 8409 28
6728 8406 8410 28
6729 8411 8412 28
6730 8411 8413 28
6731 8411 8414 28
6732 8411 8415 28
6733 8416 8417 28
6734 8416 8418 28
6735 8416 8419 28
6736 8416 8420 28
6737 8421 8422 28
6738 8421 8423 28
6739 8421 8424 28
6740 8421 8425 28
6741 8426 8427 28
6742 8426 8428 28
6743 8426 8429 28
6744 8426 8430 28
6745 8431 8432 28
6746 8431 8433 28
6747 8431 8434 28
6748 8431 8435 28
6749 8436 8437 28
6750 8436 8438 28
6751 8436 8439 28
6752 8436 8440 28
6753 8441 8442 28
6754 8441 8443 28
6755 8441 8444 28
6756 8441 8445 28
6757 8446 8447 28
6758 8446 8448 28
6759 8446 8449 28
6760 8446 8450 28
6761 8451 8452 28
6762 8451 8453 28
6763 8451 8454 28
6764 8451 8455 28
6765 8456 8457 28
6766 8456 8458 28
6767 8456 8459 28
6768 8456 8460 28
6769 8461 8462 28
6770 8461 8463 28
6771 8461 8464 28
6772 8461 8465 28
6773 8466 8467 28
6774 8466 8468 28
6775 8466 8469 28
6776 8466 8470 28
6777 8471 8472 28
6778 8471 8473 28
6779 8471 8474 28
6780 8471 8475 28
6781 8476 8477 28
6782 8476 8478 28
6783 8476 8479 28
6784 8476 8480 28
6785 8481 8482 28
6786 8481 8483 28
6787 8481 8484 28
6788 8481 8485 28
6789 8486 8487 28
6790 8486 8488 28
6791 8486 8489 28
6792 8486 8490 28
6793 8491 8492 28
6794 8491 8493 28
6795 8491 8494 28
6796 8491 8495 28
6797 8496 8497 28
6798 8496 8498 28
6799 8496 8499 28
6800 8496 8500 28
6801 8501 8502 28
6802 8501 8503 28
6803 8501 8504 28
6804 8501 8505 28
6805 8506 8507 28
6806 8506 8508 28
6807 8506 8509 28
6808 8506 8510 28
6809 8511 8512 28
6810 8511 8513 28
6811 8511 8514 28
6812 8511 8515 28
6813 8516 8517 28
6814 8516 8518 28
6815 8516 8519 28
6816 8516 8520 28
6817 8521 8522 28
6818 8521 8523 28
6819 8521 8524 28
6820 8521 8525 28
6821 8526 8527 28
6822 8526 8528 28
6823 8526 8529 28
6824 8526 8530 28
6825 8531 8532 28
6826 8531 8533 28
6827 8531 8534 28
6828 8531 8535 28
6829 8536 8537 28
6830 8536 8538 28
6831 8536 8539 28
6832 8536 8540 28
6833 8541 8542 28
6834 8541 8543 28
6835 8541 8544 28
6836 8541 8545 28
6837 8546 8547 28
6838 8546 8548 28
6839 8546 8549 28
6840 8546 8550 28
6841 8551 8552 28
6842 8551 8553 28
6843 8551 8554 28
6844 8551 8555 28
6845 8556 8557 28
6846 8556 8558 28
6847 8556 8559 28
6848 8556 8560 28
6849 8561 8562 28
6850 8561 8563 28
6851 8561 8564 28
6852 8561 8565 28
6853 8566 8567 28
6854 8566 8568 28
6855 8566 8569 28
6856 8566 8570 28
6857 8571 8572 28
6858 8571 8573 28
6859 8571 8574 28
6860 8571 8575 28
6861 8576 8577 28
6862 8576 8578 28
6863 8576 8579 28
6864 8576 8580 28
6865 8581 8582 28
6866 8581 8583 28
6867 8581 8584 28
6868 8581 8585 28
6869 8586 8587 28
6870 8586 8588 28
6871 8586 8589 28
6872 8586 8590 28
6873 8591 8592 28
6874 8591 8593 28
6875 8591 8594 28
6876 8591 8595 28
6877 8596 8597 28
6878 8596 8598 28
6879 8596 8599 28
6880 8596 8600 28
6881 8601 8602 28
6882 8601 8603 28
6883 8601 8604 28
6884 8601 8605 28
6885 8606 8607 28
6886 8606 8608 28
6887 8606 8609 28
6888 8606 8610 28
6889 8611 8612 28
6890 8611 8613 28
6891 8611 8614 28
6892 8611 8615 28
6893 8616 8617 28
6894 8616 8618 28
6895 8616 8619 28
6896 8616 8620 28
6897 8621 8622 28
6898 8621 8623 28
6899 8621 8624 28
6900 8621 8625 28
6901 8626 8627 28
6902 8626 8628 28
6903 8626 8629 28
6904 8626 8630 28
6905 8631 8632 28
6906 8631 8633 28
6907 8631 8634 28
6908 8631 8635 28
6909 8636 8637 28
6910 8636 8638 28
6911 8636 8639 28
6912 8636 8640 28
6913 8641 8642 28
6914 8641 8643 28
6915 8641 8644 28
6916 8641 8645 28
6917 8646 8647 28
6918 8646 8648 28
6919 8646 8649 28
6920 8646 8650 28
6921 8651 8652 28
6922 8651 8653 28
6923 8651 8654 28
6924 8651 8655 28
6925 8656 8657 28
6926 8656 8658 28
6927 8656 8659 28
6928 8656 8660 28
6929 8661 8662 28
6930 8661 8663 28
6931 8661 8664 28
6932 8661 8665 28
6933 8666 8667 28
6934 8666 8668 28
6935 8666 8669 28
6936 8666 8670 28
6937 8671 8672 28
6938 8671 8673 28
6939 8671 8674 28
6940 8671 8675 28
6941 8676 8677 28
6942 8676 8678 28
6943 8676 8679 28
6944 8676 8680 28
6945 8681 8682 28
6946 8681 8683 28
6947 8681 8684 28
6948 8681 8685 28
6949 8686 8687 28
6950 8686 8688 28
6951 8686 8689 28
6952 8686 8690 28
6953 8691 8692 28
6954 8691 8693 28
6955 8691 8694 28
6956 8691 8695 28
6957 8696 8697 28
6958 8696 8698 28
6959 8696 8699 28
6960 8696 8700 28
6961 8701 8702 28
6962 8701 8703 28
6963 8701 8704 28
6964 8701 8705 28
6965 8706 8707 28
6966 8706 8708 28
6967 8706 8709 28
6968 8706 8710 28
6969 8711 8712 28
6970 8711 8713 28
6971 8711 8714 28
6972 8711 8715 28
6973 8716 8717 28
6974 8716 8718 28
6975 8716 8719 28
6976 8716 8720 28
6977 8721 8722 28
6978 8721 8723 28
6979 8721 8724 28
6980 8721 8725 28
6981 8726 8727 28
6982 8726 8728 28
6983 8726 8729 28
6984 8726 8730 28
6985 8731 8732 28
6986 8731 8733 28
6987 8731 8734 28
6988 8731 8735 28
6989 8736 8737 28
6990 8736 8738 28
6991 8736 8739 28
6992 8736 8740 28
6993 8741 8742 28
6994 8741 8743 28
6995 8741 8744 28
6996 8741 8745 28
6997 8746 8747 28
6998 8746 8748 28
6999 8746 8749 28
7000 8746 8750 28
7001 8751 8752 28
7002 8751 8753 28
7003 8751 8754 28
7004 8751 8755 28
7005 8756 8757 28
7006 8756 8758 28
7007 8756 8759 28
7008 8756 8760 28
7009 8761 8762 28
7010 8761 8763 28
7011 8761 8764 28
7012 8761 8765 28
7013 8766 8767 28
7014 8766 8768 28
7015 8766 8769 28
7016 8766 8770 28
7017 8771 8772 28
7018 8771 8773 28
7019 8771 8774 28
7020 8771 8775 28
7021 8776 8777 28
7022 8776 8778 28
7023 8776 8779 28
7024 8776 8780 28
7025 8781 8782 28
7026 8781 8783 28
7027 8781 8784 28
7028 8781 8785 28
7029 8786 8787 28
7030 8786 8788 28
7031 8786 8789 28
7032 8786 8790 28
7033 8791 8792 28
7034 8791 8793 28
7035 8791 8794 28
7036 8791 8795 28
7037 8796 8797 28
7038 8796 8798 28
7039 8796 8799 28
7040 8796 8800 28
7041 8801 8802 28
7042 8801 8803 28
7043 8801 8804 28
7044 8801 8805 28
7045 8806 8807 28
7046 8806 8808 28
7047 8806 8809 28
7048 8806 8810 28
7049 8811 8812 28
7050 8811 8813 28
7051 8811 8814 28
7052 8811 8815 28
7053 8816 8817 28
7054 8816 8818 28
7055 8816 8819 28
7056 8816 8820 28
7057 8821 8822 28
7058 8821 8823 28
7059 8821 8824 28
7060 8821 8825 28
7061 8826 8827 28
7062 8826 8828 28
7063 8826 8829 28
7064 8826 8830 28
7065 8831 8832 28
7066 8831 8833 28
7067 8831 8834 28
7068 8831 8835 28
7069 8836 8837 28
7070 8836 8838 28
7071 8836 8839 28
7072 8836 8840 28
7073 8841 8842 28
7074 8841 8843 28
7075 8841 8844 28
7076 8841 8845 28
7077 8846 8847 28
7078 8846 8848 28
7079 8846 8849 28
7080 8846 8850 28
7081 8851 8852 28
7082 8851 8853 28
7083 8851 8854 28
7084 8851 8855 28
7085 8856 8857 28
7086 8856 8858 28
7087 8856 8859 28
7088 8856 8860 28
7089 8861 8862 28
7090 8861 8863 28
7091 8861 8864 28
7092 8861 8865 28
7093 8866 8867 28
7094 8866 8868 28
7095 8866 8869 28
7096 8866 8870 28
7097 8871 8872 28
7098 8871 8873 28
7099 8871 8874 28
7100 8871 8875 28
7101 8876 8877 28
7102 8876 8878 28
7103 8876 8879 28
7104 8876 8880 28
7105 8881 8882 28
7106 8881 8883 28
7107 8881 8884 28
7108 8881 8885 28
7109 8886 8887 28
7110 8886 8888 28
7111 8886 8889 28
7112 8886 8890 28
7113 8891 8892 28
7114 8891 8893 28
7115 8891 8894 28
7116 8891 8895 28
7117 8896 8897 28
7118 8896 8898 28
7119 8896 8899 28
7120 8896 8900 28
7121 8901 8902 28
7122 8901 8903 28
7123 8901 8904 28
7124 8901 8905 28
7125 8906 8907 28
7126 8906 8908 28
7127 8906 8909 28
7128 8906 8910 28
7129 8911 8912 28
7130 8911 8913 28
7131 8911 8914 28
7132 8911 8915 28
7133 8916 8917 28
7134 8916 8918 28
7135 8916 8919 28
7136 8916 8920 28
7137 8921 8922 28
7138 8921 8923 28
7139 8921 8924 28
7140 8921 8925 28
7141 8926 8927 28
7142 8926 8928 28
7143 8926 8929 28
7144 8926 8930 28
7145 8931 8932 28
7146 8931 8933 28
7147 8931 8934 28
7148 8931 8935 28
7149 8936 8937 28
7150 8936 8938 28
7151 8936 8939 28
7152 8936 8940 28
7153 8941 8942 28
7154 8941 8943 28
7155 8941 8944 28
7156 8941 8945 28
7157 8946 8947 28
7158 8946 8948 28
7159 8946 8949 28
7160 8946 8950 28
7161 8951 8952 28
7162 8951 8953 28
7163 8951 8954 28
7164 8951 8955 28
7165 8956 8957 28
7166 8956 8958 28
7167 8956 8959 28
7168 8956 8960 28
7169 8961 8962 28
7170 8961 8963 28
7171 8961 8964 28
7172 8961 8965 28
7173 8966 8967 28
7174 8966 8968 28
7175 8966 8969 28
7176 8966 8970 28
7177 8971 8972 28
7178 8971 8973 28
7179 8971 8974 28
7180 8971 8975 28
7181 8976 8977 28
7182 8976 8978 28
7183 8976 8979 28
7184 8976 8980 28
7185 8981 8982 28
7186 8981 8983 28
7187 8981 8984 28
7188 8981 8985 28
7189 8986 8987 28
7190 8986 8988 28
7191 8986 8989 28
7192 8986 8990 28
7193 8991 8992 28
7194 8991 8993 28
7195 8991 8994 28
7196 8991 8995 28
7197 8996 8997 28
7198 8996 8998 28
7199 8996 8999 28
7200 8996 9000 28
7201 9001 9002 28
7202 9001 9003 28
7203 9001 9004 28
7204 9001 9005 28
7205 9006 9007 28
7206 9006 9008 28
7207 9006 9009 28
7208 9006 9010 28
7209 9011 9012 28
7210 9011 9013 28
7211 9011 9014 28
7212 9011 9015 28
7213 9016 9017 28
7214 9016 9018 28
7215 9016 9019 28
7216 9016 9020 28
7217 9021 9022 28
7218 9021 9023 28
7219 9021 9024 28
7220 9021 9025 28
7221 9026 9027 28
7222 9026 9028 28
7223 9026 9029 28
7224 9026 9030 28
7225 9031 9032 28
7226 9031 9033 28
7227 9031 9034 28
7228 9031 9035 28
7229 9036 9037 28
7230 9036 9038 28
7231 9036 9039 28
7232 9036 9040 28
7233 9041 9042 28
7234 9041 9043 28
7235 9041 9044 28
7236 9041 9045 28
7237 9046 9047 28
7238 9046 9048 28
7239 9046 9049 28
7240 9046 9050 28
7241 9051 9052 28
7242 9051 9053 28
7243 9051 9054 28
7244 9051 9055 28
7245 9056 9057 28
7246 9056 9058 28
7247 9056 9059 28
7248 9056 9060 28
7249 9061 9062 28
7250 9061 9063 28
7251 9061 9064 28
7252 9061 9065 28
7253 9066 9067 28
7254 9066 9068 28
7255 9066 9069 28
7256 9066 9070 28
7257 9071 9072 28
7258 9071 9073 28
7259 9071 9074 28
7260 9071 9075 28
7261 9076 9077 28
7262 9076 9078 28
7263 9076 9079 28
7264 9076 9080 28
7265 9081 9082 28
7266 9081 9083 28
7267 9081 9084 28
7268 9081 9085 28
7269 9086 9087 28
7270 9086 9088 28
7271 9086 9089 28
7272 9086 9090 28
7273 9091 9092 28
7274 9091 9093 28
7275 9091 9094 28
7276 9091 9095 28
7277 9096 9097 28
7278 9096 9098 28
7279 9096 9099 28
7280 9096 9100 28
7281 9101 9102 28
7282 9101 9103 28
7283 9101 9104 28
7284 9101 9105 28
7285 9106 9107 28
7286 9106 9108 28
7287 9106 9109 28
7288 9106 9110 28
7289 9111 9112 28
7290 9111 9113 28
7291 9111 9114 28
7292 9111 9115 28
7293 9116 9117 28
7294 9116 9118 28
7295 9116 9119 28
7296 9116 9120 28
7297 9121 9122 28
7298 9121 9123 28
7299 9121 9124 28
7300 9121 9125 28
7301 9126 9127 28
7302 9126 9128 28
7303 9126 9129 28
7304 9126 9130 28
7305 9131 9132 28
7306 9131 9133 28
7307 9131 9134 28
7308 9131 9135 28
7309 9136 9137 28
7310 9136 9138 28
7311 9136 9139 28
7312 9136 9140 28
7313 9141 9142 28
7314 9141 9143 28
7315 9141 9144 28
7316 9141 9145 28
7317 9146 9147 28
7318 9146 9148 28
7319 9146 9149 28
7320 9146 9150 28
7321 9151 9152 28
7322 9151 9153 28
7323 9151 9154 28
7324 9151 9155 28
7325 9156 9157 28
7326 9156 9158 28
7327 9156 9159 28
7328 9156 9160 28
7329 9161 9162 28
7330 9161 9163 28
7331 9161 9164 28
7332 9161 9165 28
7333 9166 9167 28
7334 9166 9168 28
7335 9166 9169 28
7336 9166 9170 28
7337 9171 9172 28
7338 9171 9173 28
7339 9171 9174 28
7340 9171 9175 28
7341 9176 9177 28
7342 9176 9178 28
7343 9176 9179 28
7344 9176 9180 28
7345 9181 9182 28
7346 9181 9183 28
7347 9181 9184 28
7348 9181 9185 28
7349 9186 9187 28
7350 9186 9188 28
7351 9186 9189 28
7352 9186 9190 28
7353 9191 9192 28
7354 9191 9193 28
7355 9191 9194 28
7356 9191 9195 28
7357 9196 9197 28
7358 9196 9198 28
7359 9196 9199 28
7360 9196 9200 28
7361 9201 9202 28
7362 9201 9203 28
7363 9201 9204 28
7364 9201 9205 28
7365 9206 9207 28
7366 9206 9208 28
7367 9206 9209 28
7368 9206 9210 28
7369 9211 9212 28
7370 9211 9213 28
7371 9211 9214 28
7372 9211 9215 28
7373 9216 9217 28
7374 9216 9218 28
7375 9216 9219 28
7376 9216 9220 28
7377 9221 9222 28
7378 9221 9223 28
7379 9221 9224 28
7380 9221 9225 28
7381 9226 9227 28
7382 9226 9228 28
7383 9226 9229 28
7384 9226 9230 28
7385 9231 9232 28
7386 9231 9233 28
7387 9231 9234 28
7388 9231 9235 28
7389 9236 9237 28
7390 9236 9238 28
7391 9236 9239 28
7392 9236 9240 28
7393 9241 9242 28
7394 9241 9243 28
7395 9241 9244 28
7396 9241 9245 28
7397 9246 9247 28
7398 9246 9248 28
7399 9246 9249 28
7400 9246 9250 28
7401 9251 9252 28
7402 9251 9253 28
7403 9251 9254 28
7404 9251 9255 28
7405 9256 9257 28
7406 9256 9258 28
7407 9256 9259 28
7408 9256 9260 28
7409 9261 9262 28
7410 9261 9263 28
7411 9261 9264 28
7412 9261 9265 28
7413 9266 9267 28
7414 9266 9268 28
7415 9266 9269 28
7416 9266 9270 28
7417 9271 9272 28
7418 9271 9273 28
7419 9271 9274 28
7420 9271 9275 28
7421 9276 9277 28
7422 9276 9278 28
7423 9276 9279 28
7424 9276 9280 28
7425 9281 9282 28
7426 9281 9283 28
7427 9281 9284 28
7428 9281 9285 28
7429 9286 9287 28
7430 9286 9288 28
7431 9286 9289 28
7432 9286 9290 28
7433 9291 9292 28
7434 9291 9293 28
7435 9291 9294 28
7436 9291 9295 28
7437 9296 9297 28
7438 9296 9298 28
7439 9296 9299 28
7440 9296 9300 28
7441 9301 9302 28
7442 9301 9303 28
7443 9301 9304 28
7444 9301 9305 28
7445 9306 9307 28
7446 9306 9308 28
7447 9306 9309 28
7448 9306 9310 28
7449 9311 9312 28
7450 9311 9313 28
7451 9311 9314 28
7452 9311 9315 28
7453 9316 9317 28
7454 9316 9318 28
7455 9316 9319 28
7456 9316 9320 28
7457 9321 9322 28
7458 9321 9323 28
7459 9321 9324 28
7460 9321 9325 28
7461 9326 9327 28
7462 9326 9328 28
7463 9326 9329 28
7464 9326 9330 28
7465 9331 9332 28
7466 9331 9333 28
7467 9331 9334 28
7468 9331 9335 28
7469 9336 9337 28
7470 9336 9338 28
7471 9336 9339 28
7472 9336 9340 28
7473 9341 9342 28
7474 9341 9343 28
7475 9341 9344 28
7476 9341 9345 28
7477 9346 9347 28
7478 9346 9348 28
7479 9346 9349 28
7480 9346 9350 28
7481 9351 9352 28
7482 9351 9353 28
7483 9351 9354 28
7484 9351 9355 28
7485 9356 9357 28
7486 9356 9358 28
7487 9356 9359 28
7488 9356 9360 28
7489 9361 9362 28
7490 9361 9363 28
7491 9361 9364 28
7492 9361 9365 28
7493 9366 9367 28
7494 9366 9368 28
7495 9366 9369 28
7496 9366 9370 28
7497 9371 9372 28
7498 9371 9373 28
7499 9371 9374 28
7500 9371 9375 28
7501 9376 9377 28
7502 9376 9378 28
7503 9376 9379 28
7504 9376 9380 28
7505 9381 9382 28
7506 9381 9383 28
7507 9381 9384 28
7508 9381 9385 28
7509 9386 9387 28
7510 9386 9388 28
7511 9386 9389 28
7512 9386 9390 28
7513 9391 9392 28
7514 9391 9393 28
7515 9391 9394 28
7516 9391 9395 28
7517 9396 9397 28
7518 9396 9398 28
7519 9396 9399 28
7520 9396 9400 28
7521 9401 9402 28
7522 9401 9403 28
7523 9401 9404 28
7524 9401 9405 28
7525 9406 9407 28
7526 9406 9408 28
7527 9406 9409 28
7528 9406 9410 28
7529 9411 9412 28
7530 9411 9413 28
7531 9411 9414 28
7532 9411 9415 28
7533 9416 9417 28
7534 9416 9418 28
7535 9416 9419 28
7536 9416 9420 28
7537 9421 9422 28
7538 9421 9423 28
7539 9421 9424 28
7540 9421 9425 28
7541 9426 9427 28
7542 9426 9428 28
7543 9426 9429 28
7544 9426 9430 28
7545 9431 9432 28
7546 9431 9433 28
7547 9431 9434 28
7548 9431 9435 28
7549 9436 9437 28
7550 9436 9438 28
7551 9436 9439 28
7552 9436 9440 28
7553 9441 9442 28
7554 9441 9443 28
7555 9441 9444 28
7556 9441 9445 28
7557 9446 9447 28
7558 9446 9448 28
7559 9446 9449 28
7560 9446 9450 28
7561 9451 9452 28
7562 9451 9453 28
7563 9451 9454 28
7564 9451 9455 28
7565 9456 9457 28
7566 9456 9458 28
7567 9456 9459 28
7568 9456 9460 28
7569 9461 9462 28
7570 9461 9463 28
7571 9461 9464 28
7572 9461 9465 28
7573 9466 9467 28
7574 9466 9468 28
7575 9466 9469 28
7576 9466 9470 28
7577 9471 9472 28
7578 9471 9473 28
7579 9471 9474 28
7580 9471 9475 28
7581 9476 9477 28
7582 9476 9478 28
7583 9476 9479 28
7584 9476 9480 28
7585 9481 9482 28
7586 9481 9483 28
7587 9481 9484 28
7588 9481 9485 28
7589 9486 9487 28
7590 9486 9488 28
7591 9486 9489 28
7592 9486 9490 28
7593 9491 9492 28
7594 9491 9493 28
7595 9491 9494 28
7596 9491 9495 28
7597 9496 9497 28
7598 9496 9498 28
7599 9496 9499 28
7600 9496 9500 28
7601 9501 9502 28
7602 9501 9503 28
7603 9501 9504 28
7604 9501 9505 28
7605 9506 9507 28
7606 9506 9508 28
7607 9506 9509 28
7608 9506 9510 28
7609 9511 9512 28
7610 9511 9513 28
7611 9511 9514 28
7612 9511 9515 28
7613 9516 9517 28
7614 9516 9518 28
7615 9516 9519 28
7616 9516 9520 28
7617 9521 9522 28
7618 9521 9523 28
7619 9521 9524 28
7620 9521 9525 28
7621 9526 9527 28
7622 9526 9528 28
7623 9526 9529 28
7624 9526 9530 28
7625 9531 9532 28
7626 9531 9533 28
7627 9531 9534 28
7628 9531 9535 28
7629 9536 9537 28
7630 9536 9538 28
7631 9536 9539 28
7632 9536 9540 28
7633 9541 9542 28
7634 9541 9543 28
7635 9541 9544 28
7636 9541 9545 28
7637 9546 9547 28
7638 9546 9548 28
7639 9546 9549 28
7640 9546 9550 28
7641 9551 9552 28
7642 9551 9553 28
7643 9551 9554 28
7644 9551 9555 28
7645 9556 9557 28
7646 9556 9558 28
7647 9556 9559 28
7648 9556 9560 28
7649 9561 9562 28
7650 9561 9563 28
7651 9561 9564 28
7652 9561 9565 28
7653 9566 9567 28
7654 9566 9568 28
7655 9566 9569 28
7656 9566 9570 28
7657 9571 9572 28
7658 9571 9573 28
7659 9571 9574 28
7660 9571 9575 28
7661 9576 9577 28
7662 9576 9578 28
7663 9576 9579 28
7664 9576 9580 28
7665 9581 9582 28
7666 9581 9583 28
7667 9581 9584 28
7668 9581 9585 28
7669 9586 9587 28
7670 9586 9588 28
7671 9586 9589 28
7672 9586 9590 28
7673 9591 9592 28
7674 9591 9593 28
7675 9591 9594 28
7676 9591 9595 28
7677 9596 9597 28
7678 9596 9598 28
7679 9596 9599 28
7680 9596 9600 28
7681 9601 9602 28
7682 9601 9603 28
7683 9601 9604 28
7684 9601 9605 28
7685 9606 9607 28
7686 9606 9608 28
7687 9606 9609 28
7688 9606 9610 28
7689 9611 9612 28
7690 9611 9613 28
7691 9611 9614 28
7692 9611 9615 28
7693 9616 9617 28
7694 9616 9618 28
7695 9616 9619 28
7696 9616 9620 28
7697 9621 9622 28
7698 9621 9623 28
7699 9621 9624 28
7700 9621 9625 28
7701 9626 9627 28
7702 9626 9628 28
7703 9626 9629 28
7704 9626 9630 28
7705 9631 9632 28
7706 9631 9633 28
7707 9631 9634 28
7708 9631 9635 28
7709 9636 9637 28
7710 9636 9638 28
7711 9636 9639 28
7712 9636 9640 28
7713 9641 9642 28
7714 9641 9643 28
7715 9641 9644 28
7716 9641 9645 28
7717 9646 9647 28
7718 9646 9648 28
7719 9646 9649 28
7720 9646 9650 28
7721 9651 9652 28
7722 9651 9653 28
7723 9651 9654 28
7724 9651 9655 28
7725 9656 9657 28
7726 9656 9658 28
7727 9656 9659 28
7728 9656 9660 28
7729 9661 9662 28
7730 9661 9663 28
7731 9661 9664 28
7732 9661 9665 28
7733 9666 9667 28
7734 9666 9668 28
7735 9666 9669 28
7736 9666 9670 28
7737 9671 9672 28
7738 9671 9673 28
7739 9671 9674 28
7740 9671 9675 28
7741 9676 9677 28
7742 9676 9678 28
7743 9676 9679 28
7744 9676 9680 28
7745 9681 9682 28
7746 9681 9683 28
7747 9681 9684 28
7748 9681 9685 28
7749 9686 9687 28
7750 9686 9688 28
7751 9686 9689 28
7752 9686 9690 28
7753 9691 9692 28
7754 9691 9693 28
7755 9691 9694 28
7756 9691 9695 28
7757 9696 9697 28
7758 9696 9698 28
7759 9696 9699 28
7760 9696 9700 28
7761 9701 9702 28
7762 9701 9703 28
7763 9701 9704 28
7764 9701 9705 28
7765 9706 9707 28
7766 9706 9708 28
7767 9706 9709 28
7768 9706 9710 28
7769 9711 9712 28
7770 9711 9713 28
7771 9711 9714 28
7772 9711 9715 28
7773 9716 9717 28
7774 9716 9718 28
7775 9716 9719 28
7776 9716 9720 28
7777 9721 9722 28
7778 9721 9723 28
7779 9721 9724 28
7780 9721 9725 28
7781 9726 9727 28
7782 9726 9728 28
7783 9726 9729 28
7784 9726 9730 28
7785 9731 9732 28
7786 9731 9733 28
7787 9731 9734 28
7788 9731 9735 28
7789 9736 9737 28
7790 9736 9738 28
7791 9736 9739 28
7792 9736 9740 28
7793 9741 9742 28
7794 9741 9743 28
7795 9741 9744 28
7796 9741 9745 28
7797 9746 9747 28
7798 9746 9748 28
7799 9746 9749 28
7800 9746 9750 28
7801 9751 9752 28
7802 9751 9753 28
7803 9751 9754 28
7804 9751 9755 28
7805 9756 9757 28
7806 9756 9758 28
7807 9756 9759 28
7808 9756 9760 28
7809 9761 9762 28
7810 9761 9763 28
7811 9761 9764 28
7812 9761 9765 28
7813 9766 9767 28
7814 9766 9768 28
7815 9766 9769 28
7816 9766 9770 28
7817 9771 9772 28
7818 9771 9773 28
7819 9771 9774 28
7820 9771 9775 28
7821 9776 9777 28
7822 9776 9778 28
7823 9776 9779 28
7824 9776 9780 28
7825 9781 9782 28
7826 9781 9783 28
7827 9781 9784 28
7828 9781 9785 28
7829 9786 9787 28
7830 9786 9788 28
7831 9786 9789 28
7832 9786 9790 28
7833 9791 9792 28
7834 9791 9793 28
7835 9791 9794 28
7836 9791 9795 28
7837 9796 9797 28
7838 9796 9798 28
7839 9796 9799 28
7840 9796 9800 28
7841 9801 9802 28
7842 9801 9803 28
7843 9801 9804 28
7844 9801 9805 28
7845 9806 9807 28
7846 9806 9808 28
7847 9806 9809 28
7848 9806 9810 28
7849 9811 9812 28
7850 9811 9813 28
7851 9811 9814 28
7852 9811 9815 28
7853 9816 9817 28
7854 9816 9818 28
7855 9816 9819 28
7856 9816 9820 28
7857 9821 9822 28
7858 9821 9823 28
7859 9821 9824 28
7860 9821 9825 28
7861 9826 9827 28
7862 9826 9828 28
7863 9826 9829 28
7864 9826 9830 28
7865 9831 9832 28
7866 9831 9833 28
7867 9831 9834 28
7868 9831 9835 28
7869 9836 9837 28
7870 9836 9838 28
7871 9836 9839 28
7872 9836 9840 28
7873 9841 9842 28
7874 9841 9843 28
7875 9841 9844 28
7876 9841 9845 28
7877 9846 9847 28
7878 9846 9848 28
7879 9846 9849 28
7880 9846 9850 28
7881 9851 9852 28
7882 9851 9853 28
7883 9851 9854 28
7884 9851 9855 28
7885 9856 9857 28
7886 9856 9858 28
7887 9856 9859 28
7888 9856 9860 28
7889 9861 9862 28
7890 9861 9863 28
7891 9861 9864 28
7892 9861 9865 28
7893 9866 9867 28
7894 9866 9868 28
7895 9866 9869 28
7896 9866 9870 28
7897 9871 9872 28
7898 9871 9873 28
7899 9871 9874 28
7900 9871 9875 28
7901 9876 9877 28
7902 9876 9878 28
7903 9876 9879 28
7904 9876 9880 28
7905 9881 9882 28
7906 9881 9883 28
7907 9881 9884 28
7908 9881 9885 28
7909 9886 9887 28
7910 9886 9888 28
7911 9886 9889 28
7912 9886 9890 28
7913 9891 9892 28
7914 9891 9893 28
7915 9891 9894 28
7916 9891 9895 28
7917 9896 9897 28
7918 9896 9898 28
7919 9896 9899 28
7920 9896 9900 28
7921 9901 9902 28
7922 9901 9903 28
7923 9901 9904 28
7924 9901 9905 28
7925 9906 9907 28
7926 9906 9908 28
7927 9906 9909 28
7928 9906 9910 28
7929 9911 9912 28
7930 9911 9913 28
7931 9911 9914 28
7932 9911 9915 28
7933 9916 9917 28
7934 9916 9918 28
7935 9916 9919 28
7936 9916 9920 28
7937 9921 9922 28
7938 9921 9923 28
7939 9921 9924 28
7940 9921 9925 28
7941 9926 9927 28
7942 9926 9928 28
7943 9926 9929 28
7944 9926 9930 28
7945 9931 9932 28
7946 9931 9933 28
7947 9931 9934 28
7948 9931 9935 28
7949 9936 9937 28
7950 9936 9938 28
7951 9936 9939 28
7952 9936 9940 28
7953 9941 9942 28
7954 9941 9943 28
7955 9941 9944 28
7956 9941 9945 28
7957 9946 9947 28
7958 9946 9948 28
7959 9946 9949 28
7960 9946 9950 28
7961 9951 9952 28
7962 9951 9953 28
7963 9951 9954 28
7964 9951 9955 28
7965 9956 9957 28
7966 9956 9958 28
7967 9956 9959 28
7968 9956 9960 28
7969 9961 9962 28
7970 9961 9963 28
7971 9961 9964 28
7972 9961 9965 28
7973 9966 9967 28
7974 9966 9968 28
7975 9966 9969 28
7976 9966 9970 28
7977 9971 9972 28
7978 9971 9973 28
7979 9971 9974 28
7980 9971 9975 28
7981 9976 9977 28
7982 9976 9978 28
7983 9976 9979 28
7984 9976 9980 28
7985 9981 9982 28
7986 9981 9983 28
7987 9981 9984 28
7988 9981 9985 28
7989 9986 9987 28
7990 9986 9988 28
7991 9986 9989 28
7992 9986 9990 28
7993 9991 9992 28
7994 9991 9993 28
7995 9991 9994 28
7996 9991 9995 28
7997 9996 9997 28
7998 9996 9998 28
7999 9996 9999 28
8000 9996 10000 28
8001 10001 10002 28
8002 10001 10003 28
8003 10001 10004 28
8004 10001 10005 28
8005 10006 10007 28
8006 10006 10008 28
8007 10006 10009 28
8008 10006 10010 28
8009 10011 10012 28
8010 10011 10013 28
8011 10011 10014 28
8012 10011 10015 28
8013 10016 10017 28
8014 10016 10018 28
8015 10016 10019 28
8016 10016 10020 28
8017 10021 10022 28
8018 10021 10023 28
8019 10021 10024 28
8020 10021 10025 28
8021 10026 10027 28
8022 10026 10028 28
8023 10026 10029 28
8024 10026 10030 28
8025 10031 10032 28
8026 10031 10033 28
8027 10031 10034 28
8028 10031 10035 28
8029 10036 10037 28
8030 10036 10038 28
8031 10036 10039 28
8032 10036 10040 28
8033 10041 10042 28
8034 10041 10043 28
8035 10041 10044 28
8036 10041 10045 28
8037 10046 10047 28
8038 10046 10048 28
8039 10046 10049 28
8040 10046 10050 28
8041 10051 10052 28
8042 10051 10053 28
8043 10051 10054 28
8044 10051 10055 28
8045 10056 10057 28
8046 10056 10058 28
8047 10056 10059 28
8048 10056 10060 28
8049 10061 10062 28
8050 10061 10063 28
8051 10061 10064 28
8052 10061 10065 28
8053 10066 10067 28
8054 10066 10068 28
8055 10066 10069 28
8056 10066 10070 28
8057 10071 10072 28
8058 10071 10073 28
8059 10071 10074 28
8060 10071 10075 28
8061 10076 10077 28
8062 10076 10078 28
8063 10076 10079 28
8064 10076 10080 28
8065 10081 10082 28
8066 10081 10083 28
8067 10081 10084 28
8068 10081 10085 28
8069 10086 10087 28
8070 10086 10088 28
8071 10086 10089 28
8072 10086 10090 28
8073 10091 10092 28
8074 10091 10093 28
8075 10091 10094 28
8076 10091 10095 28
8077 10096 10097 28
8078 10096 10098 28
8079 10096 10099 28
8080 10096 10100 28
8081 10101 10102 28
8082 10101 10103 28
8083 10101 10104 28
8084 10101 10105 28
8085 10106 10107 28
8086 10106 10108 28
8087 10106 10109 28
8088 10106 10110 28
8089 10111 10112 28
8090 10111 10113 28
8091 10111 10114 28
8092 10111 10115 28
8093 10116 10117 28
8094 10116 10118 28
8095 10116 10119 28
8096 10116 10120 28
8097 10121 10122 28
8098 10121 10123 28
8099 10121 10124 28
8100 10121 10125 28
8101 10126 10127 28
8102 10126 10128 28
8103 10126 10129 28
8104 10126 10130 28
8105 10131 10132 28
8106 10131 10133 28
8107 10131 10134 28
8108 10131 10135 28
8109 10136 10137 28
8110 10136 10138 28
8111 10136 10139 28
8112 10136 10140 28
8113 10141 10142 28
8114 10141 10143 28
8115 10141 10144 28
8116 10141 10145 28
8117 10146 10147 28
8118 10146 10148 28
8119 10146 10149 28
8120 10146 10150 28
8121 10151 10152 28
8122 10151 10153 28
8123 10151 10154 28
8124 10151 10155 28
8125 10156 10157 28
8126 10156 10158 28
8127 10156 10159 28
8128 10156 10160 28
8129 10161 10162 28
8130 10161 10163 28
8131 10161 10164 28
8132 10161 10165 28
8133 10166 10167 28
8134 10166 10168 28
8135 10166 10169 28
8136 10166 10170 28
8137 10171 10172 28
8138 10171 10173 28
8139 10171 10174 28
8140 10171 10175 28
8141 10176 10177 28
8142 10176 10178 28
8143 10176 10179 28
8144 10176 10180 28
8145 10181 10182 28
8146 10181 10183 28
8147 10181 10184 28
8148 10181 10185 28
8149 10186 10187 28
8150 10186 10188 28
8151 10186 10189 28
8152 10186 10190 28
8153 10191 10192 28
8154 10191 10193 28
8155 10191 10194 28
8156 10191 10195 28
8157 10196 10197 28
8158 10196 10198 28
8159 10196 10199 28
8160 10196 10200 28
8161 10201 10202 28
8162 10201 10203 28
8163 10201 10204 28
8164 10201 10205 28
8165 10206 10207 28
8166 10206 10208 28
8167 10206 10209 28
8168 10206 10210 28
8169 10211 10212 28
8170 10211 10213 28
8171 10211 10214 28
8172 10211 10215 28
8173 10216 10217 28
8174 10216 10218 28
8175 10216 10219 28
8176 10216 10220 28
8177 10221 10222 28
8178 10221 10223 28
8179 10221 10224 28
8180 10221 10225 28
8181 10226 10227 28
8182 10226 10228 28
8183 10226 10229 28
8184 10226 10230 28
8185 10231 10232 28
8186 10231 10233 28
8187 10231 10234 28
8188 10231 10235 28
8189 10236 10237 28
8190 10236 10238 28
8191 10236 10239 28
8192 10236 10240 28
8193 10241 10242 28
8194 10241 10243 28
8195 10241 10244 28
8196 10241 10245 28
8197 10246 10247 28
8198 10246 10248 28
8199 10246 10249 28
8200 10246 10250 28
8201 10251 10252 28
8202 10251 10253 28
8203 10251 10254 28
8204 10251 10255 28
8205 10256 10257 28
8206 10256 10258 28
8207 10256 10259 28
8208 10256 10260 28
8209 10261 10262 28
8210 10261 10263 28
8211 10261 10264 28
8212 10261 10265 28
8213 10266 10267 28
8214 10266 10268 28
8215 10266 10269 28
8216 10266 10270 28
8217 10271 10272 28
8218 10271 10273 28
8219 10271 10274 28
8220 10271 10275 28
8221 10276 10277 28
8222 10276 10278 28
8223 10276 10279 28
8224 10276 10280 28
8225 10281 10282 28
8226 10281 10283 28
8227 10281 10284 28
8228 10281 10285 28
8229 10286 10287 28
8230 10286 10288 28
8231 10286 10289 28
8232 10286 10290 28
8233 10291 10292 28
8234 10291 10293 28
8235 10291 10294 28
8236 10291 10295 28
8237 10296 10297 28
8238 10296 10298 28
8239 10296 10299 28
8240 10296 10300 28
8241 10301 10302 28
8242 10301 10303 28
8243 10301 10304 28
8244 10301 10305 28
8245 10306 10307 28
8246 10306 10308 28
8247 10306 10309 28
8248 10306 10310 28
8249 10311 10312 28
8250 10311 10313 28
8251 10311 10314 28
8252 10311 10315 28
8253 10316 10317 28
8254 10316 10318 28
8255 10316 10319 28
8256 10316 10320 28
8257 10321 10322 28
8258 10321 10323 28
8259 10321 10324 28
8260 10321 10325 28
8261 10326 10327 28
8262 10326 10328 28
8263 10326 10329 28
8264 10326 10330 28
8265 10331 10332 28
8266 10331 10333 28
8267 10331 10334 28
8268 10331 10335 28
8269 10336 10337 28
8270 10336 10338 28
8271 10336 10339 28
8272 10336 10340 28
8273 10341 10342 28
8274 10341 10343 28
8275 10341 10344 28
8276 10341 10345 28
8277 10346 10347 28
8278 10346 10348 28
8279 10346 10349 28
8280 10346 10350 28
8281 10351 10352 28
8282 10351 10353 28
8283 10351 10354 28
8284 10351 10355 28
8285 10356 10357 28
8286 10356 10358 28
8287 10356 10359 28
8288 10356 10360 28
8289 10361 10362 28
8290 10361 10363 28
8291 10361 10364 28
8292 10361 10365 28
8293 10366 10367 28
8294 10366 10368 28
8295 10366 10369 28
8296 10366 10370 28
8297 10371 10372 28
8298 10371 10373 28
8299 10371 10374 28
8300 10371 10375 28
8301 10376 10377 28
8302 10376 10378 28
8303 10376 10379 28
8304 10376 10380 28
8305 10381 10382 28
8306 10381 10383 28
8307 10381 10384 28
8308 10381 10385 28
8309 10386 10387 28
8310 10386 10388 28
8311 10386 10389 28
8312 10386 10390 28
8313 10391 10392 28
8314 10391 10393 28
8315 10391 10394 28
8316 10391 10395 28
8317 10396 10397 28
8318 10396 10398 28
8319 10396 10399 28
8320 10396 10400 28
8321 10401 10402 28
8322 10401 10403 28
8323 10401 10404 28
8324 10401 10405 28
8325 10406 10407 28
8326 10406 10408 28
8327 10406 10409 28
8328 10406 10410 28
8329 10411 10412 28
8330 10411 10413 28
8331 10411 10414 28
8332 10411 10415 28
8333 10416 10417 28
8334 10416 10418 28
8335 10416 10419 28
8336 10416 10420 28
8337 10421 10422 28
8338 10421 10423 28
8339 10421 10424 28
8340 10421 10425 28
8341 10426 10427 28
8342 10426 10428 28
8343 10426 10429 28
8344 10426 10430 28
8345 10431 10432 28
8346 10431 10433 28
8347 10431 10434 28
8348 10431 10435 28
8349 10436 10437 28
8350 10436 10438 28
8351 10436 10439 28
8352 10436 10440 28
8353 10441 10442 28
8354 10441 10443 28
8355 10441 10444 28
8356 10441 10445 28
8357 10446 10447 28
8358 10446 10448 28
8359 10446 10449 28
8360 10446 10450 28
8361 10451 10452 28
8362 10451 10453 28
8363 10451 10454 28
8364 10451 10455 28
8365 10456 10457 28
8366 10456 10458 28
8367 10456 10459 28
8368 10456 10460 28
8369 10461 10462 28
8370 10461 10463 28
8371 10461 10464 28
8372 10461 10465 28
8373 10466 10467 28
8374 10466 10468 28
8375 10466 10469 28
8376 10466 10470 28
8377 10471 10472 28
8378 10471 10473 28
8379 10471 10474 28
8380 10471 10475 28
8381 10476 10477 28
8382 10476 10478 28
8383 10476 10479 28
8384 10476 10480 28
8385 10481 10482 28
8386 10481 10483 28
8387 10481 10484 28
8388 10481 10485 28
8389 10486 10487 28
8390 10486 10488 28
8391 10486 10489 28
8392 10486 10490 28
8393 10491 10492 28
8394 10491 10493 28
8395 10491 10494 28
8396 10491 10495 28
8397 10496 10497 28
8398 10496 10498 28
8399 10496 10499 28
8400 10496 10500 28
8401 10501 10502 28
8402 10501 10503 28
8403 10501 10504 28
8404 10501 10505 28
8405 10506 10507 28
8406 10506 10508 28
8407 10506 10509 28
8408 10506 10510 28
8409 10511 10512 28
8410 10511 10513 28
8411 10511 10514 28
8412 10511 10515 28
8413 10516 10517 28
8414 10516 10518 28
8415 10516 10519 28
8416 10516 10520 28
8417 10521 10522 28
8418 10521 10523 28
8419 10521 10524 28
8420 10521 10525 28
8421 10526 10527 28
8422 10526 10528 28
8423 10526 10529 28
8424 10526 10530 28
8425 10531 10532 28
8426 10531 10533 28
8427 10531 10534 28
8428 10531 10535 28
8429 10536 10537 28
8430 10536 10538 28
8431 10536 10539 28
8432 10536 10540 28
8433 10541 10542 28
8434 10541 10543 28
8435 10541 10544 28
8436 10541 10545 28
8437 10546 10547 28
8438 10546 10548 28
8439 10546 10549 28
8440 10546 10550 28
8441 10551 10552 28
8442 10551 10553 28
8443 10551 10554 28
8444 10551 10555 28
8445 10556 10557 28
8446 10556 10558 28
8447 10556 10559 28
8448 10556 10560 28
8449 10561 10562 28
8450 10561 10563 28
8451 10561 10564 28
8452 10561 10565 28
8453 10566 10567 28
8454 10566 10568 28
8455 10566 10569 28
8456 10566 10570 28
8457 10571 10572 28
8458 10571 10573 28
8459 10571 10574 28
8460 10571 10575 28
8461 10576 10577 28
8462 10576 10578 28
8463 10576 10579 28
8464 10576 10580 28
8465 10581 10582 28
8466 10581 10583 28
8467 10581 10584 28
8468 10581 10585 28
8469 10586 10587 28
8470 10586 10588 28
8471 10586 10589 28
8472 10586 10590 28
8473 10591 10592 28
8474 10591 10593 28
8475 10591 10594 28
8476 10591 10595 28
8477 10596 10597 28
8478 10596 10598 28
8479 10596 10599 28
8480 10596 10600 28
8481 10601 10602 28
8482 10601 10603 28
8483 10601 10604 28
8484 10601 10605 28
8485 10606 10607 28
8486 10606 10608 28
8487 10606 10609 28
8488 10606 10610 28
8489 10611 10612 28
8490 10611 10613 28
8491 10611 10614 28
8492 10611 10615 28
8493 10616 10617 28
8494 10616 10618 28
8495 10616 10619 28
8496 10616 10620 28
8497 10621 10622 28
8498 10621 10623 28
8499 10621 10624 28
8500 10621 10625 28
8501 10626 10627 28
8502 10626 10628 28
8503 10626 10629 28
8504 10626 10630 28
8505 10631 10632 28
8506 10631 10633 28
8507 10631 10634 28
8508 10631 10635 28
8509 10636 10637 28
8510 10636 10638 28
8511 10636 10639 28
8512 10636 10640 28
8513 10641 10642 28
8514 10641 10643 28
8515 10641 10644 28
8516 10641 10645 28
8517 10646 10647 28
8518 10646 10648 28
8519 10646 10649 28
8520 10646 10650 28
8521 10651 10652 28
8522 10651 10653 28
8523 10651 10654 28
8524 10651 10655 28
8525 10656 10657 28
8526 10656 10658 28
8527 10656 10659 28
8528 10656 10660 28
8529 10661 10662 28
8530 10661 10663 28
8531 10661 10664 28
8532 10661 10665 28
8533 10666 10667 28
8534 10666 10668 28
8535 10666 10669 28
8536 10666 10670 28
8537 10671 10672 28
8538 10671 10673 28
8539 10671 10674 28
8540 10671 10675 28
8541 10676 10677 28
8542 10676 10678 28
8543 10676 10679 28
8544 10676 10680 28
8545 10681 10682 28
8546 10681 10683 28
8547 10681 10684 28
8548 10681 10685 28
8549 10686 10687 28
8550 10686 10688 28
8551 10686 10689 28
8552 10686 10690 28
8553 10691 10692 28
8554 10691 10693 28
8555 10691 10694 28
8556 10691 10695 28
8557 10696 10697 28
8558 10696 10698 28
8559 10696 10699 28
8560 10696 10700 28
8561 10701 10702 28
8562 10701 10703 28
8563 10701 10704 28
8564 10701 10705 28
8565 10706 10707 28
8566 10706 10708 28
8567 10706 10709 28
8568 10706 10710 28
8569 10711 10712 28
8570 10711 10713 28
8571 10711 10714 28
8572 10711 10715 28
8573 10716 10717 28
8574 10716 10718 28
8575 10716 10719 28
8576 10716 10720 28
8577 10721 10722 28
8578 10721 10723 28
8579 10721 10724 28
8580 10721 10725 28
8581 10726 10727 28
8582 10726 10728 28
8583 10726 10729 28
8584 10726 10730 28
8585 10731 10732 28
8586 10731 10733 28
8587 10731 10734 28
8588 10731 10735 28
8589 10736 10737 28
8590 10736 10738 28
8591 10736 10739 28
8592 10736 10740 28
8593 10741 10742 28
8594 10741 10743 28
8595 10741 10744 28
8596 10741 10745 28
8597 10746 10747 28
8598 10746 10748 28
8599 10746 10749 28
8600 10746 10750 28
8601 10751 10752 28
8602 10751 10753 28
8603 10751 10754 28
8604 10751 10755 28
8605 10756 10757 28
8606 10756 10758 28
8607 10756 10759 28
8608 10756 10760 28
8609 10761 10762 28
8610 10761 10763 28
8611 10761 10764 28
8612 10761 10765 28
8613 10766 10767 28
8614 10766 10768 28
8615 10766 10769 28
8616 10766 10770 28
8617 10771 10772 28
8618 10771 10773 28
8619 10771 10774 28
8620 10771 10775 28
8621 10776 10777 28
8622 10776 10778 28
8623 10776 10779 28
8624 10776 10780 28
8625 10781 10782 28
8626 10781 10783 28
8627 10781 10784 28
8628 10781 10785 28
8629 10786 10787 28
8630 10786 10788 28
8631 10786 10789 28
8632 10786 10790 28
8633 10791 10792 28
8634 10791 10793 28
8635 10791 10794 28
8636 10791 10795 28
8637 10796 10797 28
8638 10796 10798 28
8639 10796 10799 28
8640 10796 10800 28
8641 10801 10802 28
8642 10801 10803 28
8643 10801 10804 28
8644 10801 10805 28
8645 10806 10807 28
8646 10806 10808 28
8647 10806 10809 28
8648 10806 10810 28
8649 10811 10812 28
8650 10811 10813 28
8651 10811 10814 28
8652 10811 10815 28
8653 10816 10817 28
8654 10816 10818 28
8655 10816 10819 28
8656 10816 10820 28
8657 10821 10822 28
8658 10821 10823 28
8659 10821 10824 28
8660 10821 10825 28
8661 10826 10827 28
8662 10826 10828 28
8663 10826 10829 28
8664 10826 10830 28
8665 10831 10832 28
8666 10831 10833 28
8667 10831 10834 28
8668 10831 10835 28
8669 10836 10837 28
8670 10836 10838 28
8671 10836 10839 28
8672 10836 10840 28
8673 10841 10842 28
8674 10841 10843 28
8675 10841 10844 28
8676 10841 10845 28
8677 10846 10847 28
8678 10846 10848 28
8679 10846 10849 28
8680 10846 10850 28
8681 10851 10852 28
8682 10851 10853 28
8683 10851 10854 28
8684 10851 10855 28
8685 10856 10857 28
8686 10856 10858 28
8687 10856 10859 28
8688 10856 10860 28
8689 10861 10862 28
8690 10861 10863 28
8691 10861 10864 28
8692 10861 10865 28
8693 10866 10867 28
8694 10866 10868 28
8695 10866 10869 28
8696 10866 10870 28
8697 10871 10872 28
8698 10871 10873 28
8699 10871 10874 28
8700 10871 10875 28
8701 10876 10877 28
8702 10876 10878 28
8703 10876 10879 28
8704 10876 10880 28
8705 10881 10882 28
8706 10881 10883 28
8707 10881 10884 28
8708 10881 10885 28
8709 10886 10887 28
8710 10886 10888 28
8711 10886 10889 28
8712 10886 10890 28
8713 10891 10892 28
8714 10891 10893 28
8715 10891 10894 28
8716 10891 10895 28
8717 10896 10897 28
8718 10896 10898 28
8719 10896 10899 28
8720 10896 10900 28
8721 10901 10902 28
8722 10901 10903 28
8723 10901 10904 28
8724 10901 10905 28
8725 10906 10907 28
8726 10906 10908 28
8727 10906 10909 28
8728 10906 10910 28
8729 10911 10912 28
8730 10911 10913 28
8731 10911 10914 28
8732 10911 10915 28
8733 10916 10917 28
8734 10916 10918 28
8735 10916 10919 28
8736 10916 10920 28
8737 10921 10922 28
8738 10921 10923 28
8739 10921 10924 28
8740 10921 10925 28
8741 10926 10927 28
8742 10926 10928 28
8743 10926 10929 28
8744 10926 10930 28
8745 10931 10932 28
8746 10931 10933 28
8747 10931 10934 28
8748 10931 10935 28
8749 10936 10937 28
8750 10936 10938 28
8751 10936 10939 28
8752 10936 10940 28
8753 10941 10942 28
8754 10941 10943 28
8755 10941 10944 28
8756 10941 10945 28
8757 10946 10947 28
8758 10946 10948 28
8759 10946 10949 28
8760 10946 10950 28
8761 10951 10952 28
8762 10951 10953 28
8763 10951 10954 28
8764 10951 10955 28
8765 10956 10957 28
8766 10956 10958 28
8767 10956 10959 28
8768 10956 10960 28
8769 10961 10962 28
8770 10961 10963 28
8771 10961 10964 28
8772 10961 10965 28
8773 10966 10967 28
8774 10966 10968 28
8775 10966 10969 28
8776 10966 10970 28
8777 10971 10972 28
8778 10971 10973 28
8779 10971 10974 28
8780 10971 10975 28
8781 10976 10977 28
8782 10976 10978 28
8783 10976 10979 28
8784 10976 10980 28
8785 10981 10982 28
8786 10981 10983 28
8787 10981 10984 28
8788 10981 10985 28
8789 10986 10987 28
8790 10986 10988 28
8791 10986 10989 28
8792 10986 10990 28
8793 10991 10992 28
8794 10991 10993 28
8795 10991 10994 28
8796 10991 10995 28
8797 10996 10997 28
8798 10996 10998 28
8799 10996 10999 28
8800 10996 11000 28
8801 11001 11002 28
8802 11001 11003 28
8803 11001 11004 28
8804 11001 11005 28
8805 11006 11007 28
8806 11006 11008 28
8807 11006 11009 28
8808 11006 11010 28
8809 11011 11012 28
8810 11011 11013 28
8811 11011 11014 28
8812 11011 11015 28
8813 11016 11017 28
8814 11016 11018 28
8815 11016 11019 28
8816 11016 11020 28
8817 11021 11022 28
8818 11021 11023 28
8819 11021 11024 28
8820 11021 11025 28
8821 11026 11027 28
8822 11026 11028 28
8823 11026 11029 28
8824 11026 11030 28
8825 11031 11032 28
8826 11031 11033 28
8827 11031 11034 28
8828 11031 11035 28
8829 11036 11037 28
8830 11036 11038 28
8831 11036 11039 28
8832 11036 11040 28
8833 11041 11042 28
8834 11041 11043 28
8835 11041 11044 28
8836 11041 11045 28
8837 11046 11047 28
8838 11046 11048 28
8839 11046 11049 28
8840 11046 11050 28
8841 11051 11052 28
8842 11051 11053 28
8843 11051 11054 28
8844 11051 11055 28
8845 11056 11057 28
8846 11056 11058 28
8847 11056 11059 28
8848 11056 11060 28
8849 11061 11062 28
8850 11061 11063 28
8851 11061 11064 28
8852 11061 11065 28
8853 11066 11067 28
8854 11066 11068 28
8855 11066 11069 28
8856 11066 11070 28
8857 11071 11072 28
8858 11071 11073 28
8859 11071 11074 28
8860 11071 11075 28
8861 11076 11077 28
8862 11076 11078 28
8863 11076 11079 28
8864 11076 11080 28
8865 11081 11082 28
8866 11081 11083 28
8867 11081 11084 28
8868 11081 11085 28
8869 11086 11087 28
8870 11086 11088 28
8871 11086 11089 28
8872 11086 11090 28
8873 11091 11092 28
8874 11091 11093 28
8875 11091 11094 28
8876 11091 11095 28
8877 11096 11097 28
8878 11096 11098 28
8879 11096 11099 28
8880 11096 11100 28
8881 11101 11102 28
8882 11101 11103 28
8883 11101 11104 28
8884 11101 11105 28
8885 11106 11107 28
8886 11106 11108 28
8887 11106 11109 28
8888 11106 11110 28
8889 11111 11112 28
8890 11111 11113 28
8891 11111 11114 28
8892 11111 11115 28
8893 11116 11117 28
8894 11116 11118 28
8895 11116 11119 28
8896 11116 11120 28
8897 11121 11122 28
8898 11121 11123 28
8899 11121 11124 28
8900 11121 11125 28
8901 11126 11127 28
8902 11126 11128 28
8903 11126 11129 28
8904 11126 11130 28
8905 11131 11132 28
8906 11131 11133 28
8907 11131 11134 28
8908 11131 11135 28
8909 11136 11137 28
8910 11136 11138 28
8911 11136 11139 28
8912 11136 11140 28
8913 11141 11142 28
8914 11141 11143 28
8915 11141 11144 28
8916 11141 11145 28
8917 11146 11147 28
8918 11146 11148 28
8919 11146 11149 28
8920 11146 11150 28
8921 11151 11152 28
8922 11151 11153 28
8923 11151 11154 28
8924 11151 11155 28
8925 11156 11157 28
8926 11156 11158 28
8927 11156 11159 28
8928 11156 11160 28
8929 11161 11162 28
8930 11161 11163 28
8931 11161 11164 28
8932 11161 11165 28
8933 11166 11167 28
8934 11166 11168 28
8935 11166 11169 28
8936 11166 11170 28
8937 11171 11172 28
8938 11171 11173 28
8939 11171 11174 28
8940 11171 11175 28
8941 11176 11177 28
8942 11176 11178 28
8943 11176 11179 28
8944 11176 11180 28
8945 11181 11182 28
8946 11181 11183 28
8947 11181 11184 28
8948 11181 11185 28
8949 11186 11187 28
8950 11186 11188 28
8951 11186 11189 28
8952 11186 11190 28
8953 11191 11192 28
8954 11191 11193 28
8955 11191 11194 28
8956 11191 11195 28
8957 11196 11197 28
8958 11196 11198 28
8959 11196 11199 28
8960 11196 11200 28
8961 11201 11202 28
8962 11201 11203 28
8963 11201 11204 28
8964 11201 11205 28
8965 11206 11207 28
8966 11206 11208 28
8967 11206 11209 28
8968 11206 11210 28
8969 11211 11212 28
8970 11211 11213 28
8971 11211 11214 28
8972 11211 11215 28
8973 11216 11217 28
8974 11216 11218 28
8975 11216 11219 28
8976 11216 11220 28
8977 11221 11222 28
8978 11221 11223 28
8979 11221 11224 28
8980 11221 11225 28
8981 11226 11227 28
8982 11226 11228 28
8983 11226 11229 28
8984 11226 11230 28
8985 11231 11232 28
8986 11231 11233 28
8987 11231 11234 28
8988 11231 11235 28
8989 11236 11237 28
8990 11236 11238 28
8991 11236 11239 28
8992 11236 11240 28
8993 11241 11242 28
8994 11241 11243 28
8995 11241 11244 28
8996 11241 11245 28
8997 11246 11247 28
8998 11246 11248 28
8999 11246 11249 28
9000 11246 11250 28
9001 11251 11252 28
9002 11251 11253 28
9003 11251 11254 28
9004 11251 11255 28
9005 11256 11257 28
9006 11256 11258 28
9007 11256 11259 28
9008 11256 11260 28
9009 11261 11262 28
9010 11261 11263 28
9011 11261 11264 28
9012 11261 11265 28
9013 11266 11267 28
9014 11266 11268 28
9015 11266 11269 28
9016 11266 11270 28
9017 11271 11272 28
9018 11271 11273 28
9019 11271 11274 28
9020 11271 11275 28
9021 11276 11277 28
9022 11276 11278 28
9023 11276 11279 28
9024 11276 11280 28
9025 11281 11282 28
9026 11281 11283 28
9027 11281 11284 28
9028 11281 11285 28
9029 11286 11287 28
9030 11286 11288 28
9031 11286 11289 28
9032 11286 11290 28
9033 11291 11292 28
9034 11291 11293 28
9035 11291 11294 28
9036 11291 11295 28
9037 11296 11297 28
9038 11296 11298 28
9039 11296 11299 28
9040 11296 11300 28
9041 11301 11302 28
9042 11301 11303 28
9043 11301 11304 28
9044 11301 11305 28
9045 11306 11307 28
9046 11306 11308 28
9047 11306 11309 28
9048 11306 11310 28
9049 11311 11312 28
9050 11311 11313 28
9051 11311 11314 28
9052 11311 11315 28
9053 11316 11317 28
9054 11316 11318 28
9055 11316 11319 28
9056 11316 11320 28
9057 11321 11322 28
9058 11321 11323 28
9059 11321 11324 28
9060 11321 11325 28
9061 11326 11327 28
9062 11326 11328 28
9063 11326 11329 28
9064 11326 11330 28
9065 11331 11332 28
9066 11331 11333 28
9067 11331 11334 28
9068 11331 11335 28
9069 11336 11337 28
9070 11336 11338 28
9071 11336 11339 28
9072 11336 11340 28
9073 11341 11342 28
9074 11341 11343 28
9075 11341 11344 28
9076 11341 11345 28
9077 11346 11347 28
9078 11346 11348 28
9079 11346 11349 28
9080 11346 11350 28
9081 11351 11352 28
9082 11351 11353 28
9083 11351 11354 28
9084 11351 11355 28
9085 11356 11357 28
9086 11356 11358 28
9087 11356 11359 28
9088 11356 11360 28
9089 11361 11362 28
9090 11361 11363 28
9091 11361 11364 28
9092 11361 11365 28
9093 11366 11367 28
9094 11366 11368 28
9095 11366 11369 28
9096 11366 11370 28
9097 11371 11372 28
9098 11371 11373 28
9099 11371 11374 28
9100 11371 11375 28
9101 11376 11377 28
9102 11376 11378 28
9103 11376 11379 28
9104 11376 11380 28
9105 11381 11382 28
9106 11381 11383 28
9107 11381 11384 28
9108 11381 11385 28
9109 11386 11387 28
9110 11386 11388 28
9111 11386 11389 28
9112 11386 11390 28
9113 11391 11392 28
9114 11391 11393 28
9115 11391 11394 28
9116 11391 11395 28
9117 11396 11397 28
9118 11396 11398 28
9119 11396 11399 28
9120 11396 11400 28
9121 11401 11402 28
9122 11401 11403 28
9123 11401 11404 28
9124 11401 11405 28
9125 11406 11407 28
9126 11406 11408 28
9127 11406 11409 28
9128 11406 11410 28
9129 11411 11412 28
9130 11411 11413 28
9131 11411 11414 28
9132 11411 11415 28
9133 11416 11417 28
9134 11416 11418 28
9135 11416 11419 28
9136 11416 11420 28
9137 11421 11422 28
9138 11421 11423 28
9139 11421 11424 28
9140 11421 11425 28
9141 11426 11427 28
9142 11426 11428 28
9143 11426 11429 28
9144 11426 11430 28
9145 11431 11432 28
9146 11431 11433 28
9147 11431 11434 28
9148 11431 11435 28
9149 11436 11437 28
9150 11436 11438 28
9151 11436 11439 28
9152 11436 11440 28
9153 11441 11442 28
9154 11441 11443 28
9155 11441 11444 28
9156 11441 11445 28
9157 11446 11447 28
9158 11446 11448 28
9159 11446 11449 28
9160 11446 11450 28
9161 11451 11452 28
9162 11451 11453 28
9163 11451 11454 28
9164 11451 11455 28
9165 11456 11457 28
9166 11456 11458 28
9167 11456 11459 28
9168 11456 11460 28
9169 11461 11462 28
9170 11461 11463 28
9171 11461 11464 28
9172 11461 11465 28
9173 11466 11467 28
9174 11466 11468 28
9175 11466 11469 28
9176 11466 11470 28
9177 11471 11472 28
9178 11471 11473 28
9179 11471 11474 28
9180 11471 11475 28
9181 11476 11477 28
9182 11476 11478 28
9183 11476 11479 28
9184 11476 11480 28
9185 11481 11482 28
9186 11481 11483 28
9187 11481 11484 28
9188 11481 11485 28
9189 11486 11487 28
9190 11486 11488 28
9191 11486 11489 28
9192 11486 11490 28
9193 11491 11492 28
9194 11491 11493 28
9195 11491 11494 28
9196 11491 11495 28
9197 11496 11497 28
9198 11496 11498 28
9199 11496 11499 28
9200 11496 11500 28
9201 11501 11502 28
9202 11501 11503 28
9203 11501 11504 28
9204 11501 11505 28
9205 11506 11507 28
9206 11506 11508 28
9207 11506 11509 28
9208 11506 11510 28
9209 11511 11512 28
9210 11511 11513 28
9211 11511 11514 28
9212 11511 11515 28
9213 11516 11517 28
9214 11516 11518 28
9215 11516 11519 28
9216 11516 11520 28
9217 11521 11522 28
9218 11521 11523 28
9219 11521 11524 28
9220 11521 11525 28
9221 11526 11527 28
9222 11526 11528 28
9223 11526 11529 28
9224 11526 11530 28
9225 11531 11532 28
9226 11531 11533 28
9227 11531 11534 28
9228 11531 11535 28
9229 11536 11537 28
9230 11536 11538 28
9231 11536 11539 28
9232 11536 11540 28
9233 11541 11542 28
9234 11541 11543 28
9235 11541 11544 28
9236 11541 11545 28
9237 11546 11547 28
9238 11546 11548 28
9239 11546 11549 28
9240 11546 11550 28
9241 11551 11552 28
9242 11551 11553 28
9243 11551 11554 28
9244 11551 11555 28
9245 11556 11557 28
9246 11556 11558 28
9247 11556 11559 28
9248 11556 11560 28
9249 11561 11562 28
9250 11561 11563 28
9251 11561 11564 28
9252 11561 11565 28
9253 11566 11567 28
9254 11566 11568 28
9255 11566 11569 28
9256 11566 11570 28
9257 11571 11572 28
9258 11571 11573 28
9259 11571 11574 28
9260 11571 11575 28
9261 11576 11577 28
9262 11576 11578 28
9263 11576 11579 28
9264 11576 11580 28
9265 11581 11582 28
9266 11581 11583 28
9267 11581 11584 28
9268 11581 11585 28
9269 11586 11587 28
9270 11586 11588 28
9271 11586 11589 28
9272 11586 11590 28
9273 11591 11592 28
9274 11591 11593 28
9275 11591 11594 28
9276 11591 11595 28
9277 11596 11597 28
9278 11596 11598 28
9279 11596 11599 28
9280 11596 11600 28
9281 11601 11602 28
9282 11601 11603 28
9283 11601 11604 28
9284 11601 11605 28
9285 11606 11607 28
9286 11606 11608 28
9287 11606 11609 28
9288 11606 11610 28
9289 11611 11612 28
9290 11611 11613 28
9291 11611 11614 28
9292 11611 11615 28
9293 11616 11617 28
9294 11616 11618 28
9295 11616 11619 28
9296 11616 11620 28
9297 11621 11622 28
9298 11621 11623 28
9299 11621 11624 28
9300 11621 11625 28
9301 11626 11627 28
9302 11626 11628 28
9303 11626 11629 28
9304 11626 11630 28
9305 11631 11632 28
9306 11631 11633 28
9307 11631 11634 28
9308 11631 11635 28
9309 11636 11637 28
9310 11636 11638 28
9311 11636 11639 28
9312 11636 11640 28
9313 11641 11642 28
9314 11641 11643 28
9315 11641 11644 28
9316 11641 11645 28
9317 11646 11647 28
9318 11646 11648 28
9319 11646 11649 28
9320 11646 11650 28
9321 11651 11652 28
9322 11651 11653 28
9323 11651 11654 28
9324 11651 11655 28
9325 11656 11657 28
9326 11656 11658 28
9327 11656 11659 28
9328 11656 11660 28
9329 11661 11662 28
9330 11661 11663 28
9331 11661 11664 28
9332 11661 11665 28
9333 11666 11667 28
9334 11666 11668 28
9335 11666 11669 28
9336 11666 11670 28
9337 11671 11672 28
9338 11671 11673 28
9339 11671 11674 28
9340 11671 11675 28
9341 11676 11677 28
9342 11676 11678 28
9343 11676 11679 28
9344 11676 11680 28
9345 11681 11682 28
9346 11681 11683 28
9347 11681 11684 28
9348 11681 11685 28
9349 11686 11687 28
9350 11686 11688 28
9351 11686 11689 28
9352 11686 11690 28
9353 11691 11692 28
9354 11691 11693 28
9355 11691 11694 28
9356 11691 11695 28
9357 11696 11697 28
9358 11696 11698 28
9359 11696 11699 28
9360 11696 11700 28
9361 11701 11702 28
9362 11701 11703 28
9363 11701 11704 28
9364 11701 11705 28
9365 11706 11707 28
9366 11706 11708 28
9367 11706 11709 28
9368 11706 11710 28
9369 11711 11712 28
9370 11711 11713 28
9371 11711 11714 28
9372 11711 11715 28
9373 11716 11717 28
9374 11716 11718 28
9375 11716 11719 28
9376 11716 11720 28
9377 11721 11722 28
9378 11721 11723 28
9379 11721 11724 28
9380 11721 11725 28
9381 11726 11727 28
9382 11726 11728 28
9383 11726 11729 28
9384 11726 11730 28
9385 11731 11732 28
9386 11731 11733 28
9387 11731 11734 28
9388 11731 11735 28
9389 11736 11737 28
9390 11736 11738 28
9391 11736 11739 28
9392 11736 11740 28
9393 11741 11742 28
9394 11741 11743 28
9395 11741 11744 28
9396 11741 11745 28
9397 11746 11747 28
9398 11746 11748 28
9399 11746 11749 28
9400 11746 11750 28
9401 11751 11752 28
9402 11751 11753 28
9403 11751 11754 28
9404 11751 11755 28
9405 11756 11757 28
9406 11756 11758 28
9407 11756 11759 28
9408 11756 11760 28
9409 11761 11762 28
9410 11761 11763 28
9411 11761 11764 28
9412 11761 11765 28
9413 11766 11767 28
9414 11766 11768 28
9415 11766 11769 28
9416 11766 11770 28
9417 11771 11772 28
9418 11771 11773 28
9419 11771 11774 28
9420 11771 11775 28
9421 11776 11777 28
9422 11776 11778 28
9423 11776 11779 28
9424 11776 11780 28
9425 11781 11782 28
9426 11781 11783 28
9427 11781 11784 28
9428 11781 11785 28
9429 11786 11787 28
9430 11786 11788 28
9431 11786 11789 28
9432 11786 11790 28
9433 11791 11792 28
9434 11791 11793 28
9435 11791 11794 28
9436 11791 11795 28
9437 11796 11797 28
9438 11796 11798 28
9439 11796 11799 28
9440 11796 11800 28
9441 11801 11802 28
9442 11801 11803 28
9443 11801 11804 28
9444 11801 11805 28
9445 11806 11807 28
9446 11806 11808 28
9447 11806 11809 28
9448 11806 11810 28
9449 11811 11812 28
9450 11811 11813 28
9451 11811 11814 28
9452 11811 11815 28
9453 11816 11817 28
9454 11816 11818 28
9455 11816 11819 28
9456 11816 11820 28
9457 11821 11822 28
9458 11821 11823 28
9459 11821 11824 28
9460 11821 11825 28
9461 11826 11827 28
9462 11826 11828 28
9463 11826 11829 28
9464 11826 11830 28
9465 11831 11832 28
9466 11831 11833 28
9467 11831 11834 28
9468 11831 11835 28
9469 11836 11837 28
9470 11836 11838 28
9471 11836 11839 28
9472 11836 11840 28
9473 11841 11842 28
9474 11841 11843 28
9475 11841 11844 28
9476 11841 11845 28
9477 11846 11847 28
9478 11846 11848 28
9479 11846 11849 28
9480 11846 11850 28
9481 11851 11852 28
9482 11851 11853 28
9483 11851 11854 28
9484 11851 11855 28
9485 11856 11857 28
9486 11856 11858 28
9487 11856 11859 28
9488 11856 11860 28
9489 11861 11862 28
9490 11861 11863 28
9491 11861 11864 28
9492 11861 11865 28
9493 11866 11867 28
9494 11866 11868 28
9495 11866 11869 28
9496 11866 11870 28
9497 11871 11872 28
9498 11871 11873 28
9499 11871 11874 28
9500 11871 11875 28
9501 11876 11877 28
9502 11876 11878 28
9503 11876 11879 28
9504 11876 11880 28
9505 11881 11882 28
9506 11881 11883 28
9507 11881 11884 28
9508 11881 11885 28
9509 11886 11887 28
9510 11886 11888 28
9511 11886 11889 28
9512 11886 11890 28
9513 11891 11892 28
9514 11891 11893 28
9515 11891 11894 28
9516 11891 11895 28
9517 11896 11897 28
9518 11896 11898 28
9519 11896 11899 28
9520 11896 11900 28
9521 11901 11902 28
9522 11901 11903 28
9523 11901 11904 28
9524 11901 11905 28
9525 11906 11907 28
9526 11906 11908 28
9527 11906 11909 28
9528 11906 11910 28
9529 11911 11912 28
9530 11911 11913 28
9531 11911 11914 28
9532 11911 11915 28
9533 11916 11917 28
9534 11916 11918 28
9535 11916 11919 28
9536 11916 11920 28
9537 11921 11922 28
9538 11921 11923 28
9539 11921 11924 28
9540 11921 11925 28
9541 11926 11927 28
9542 11926 11928 28
9543 11926 11929 28
9544 11926 11930 28
9545 11931 11932 28
9546 11931 11933 28
9547 11931 11934 28
9548 11931 11935 28
9549 11936 11937 28
9550 11936 11938 28
9551 11936 11939 28
9552 11936 11940 28
9553 11941 11942 28
9554 11941 11943 28
9555 11941 11944 28
9556 11941 11945 28
9557 11946 11947 28
9558 11946 11948 28
9559 11946 11949 28
9560 11946 11950 28
9561 11951 11952 28
9562 11951 11953 28
9563 11951 11954 28
9564 11951 11955 28
9565 11956 11957 28
9566 11956 11958 28
9567 11956 11959 28
9568 11956 11960 28
9569 11961 11962 28
9570 11961 11963 28
9571 11961 11964 28
9572 11961 11965 28
9573 11966 11967 28
9574 11966 11968 28
9575 11966 11969 28
9576 11966 11970 28
9577 11971 11972 28
9578 11971 11973 28
9579 11971 11974 28
9580 11971 11975 28
9581 11976 11977 28
9582 11976 11978 28
9583 11976 11979 28
9584 11976 11980 28
9585 11981 11982 28
9586 11981 11983 28
9587 11981 11984 28
9588 11981 11985 28
9589 11986 11987 28
9590 11986 11988 28
9591 11986 11989 28
9592 11986 11990 28
9593 11991 11992 28
9594 11991 11993 28
9595 11991 11994 28
9596 11991 11995 28
9597 11996 11997 28
9598 11996 11998 28
9599 11996 11999 28
9600 11996 12000 28
9601 12001 12002 28
9602 12001 12003 28
9603 12001 12004 28
9604 12001 12005 28
9605 12006 12007 28
9606 12006 12008 28
9607 12006 12009 28
9608 12006 12010 28
9609 12011 12012 28
9610 12011 12013 28
9611 12011 12014 28
9612 12011 12015 28
9613 12016 12017 28
9614 12016 12018 28
9615 12016 12019 28
9616 12016 12020 28
9617 12021 12022 28
9618 12021 12023 28
9619 12021 12024 28
9620 12021 12025 28
9621 12026 12027 28
9622 12026 12028 28
9623 12026 12029 28
9624 12026 12030 28
9625 12031 12032 28
9626 12031 12033 28
9627 12031 12034 28
9628 12031 12035 28
9629 12036 12037 28
9630 12036 12038 28
9631 12036 12039 28
9632 12036 12040 28
9633 12041 12042 28
9634 12041 12043 28
9635 12041 12044 28
9636 12041 12045 28
9637 12046 12047 28
9638 12046 12048 28
9639 12046 12049 28
9640 12046 12050 28
9641 12051 12052 28
9642 12051 12053 28
9643 12051 12054 28
9644 12051 12055 28
9645 12056 12057 28
9646 12056 12058 28
9647 12056 12059 28
9648 12056 12060 28
9649 12061 12062 28
9650 12061 12063 28
9651 12061 12064 28
9652 12061 12065 28
9653 12066 12067 28
9654 12066 12068 28
9655 12066 12069 28
9656 12066 12070 28
9657 12071 12072 28
9658 12071 12073 28
9659 12071 12074 28
9660 12071 12075 28
9661 12076 12077 28
9662 12076 12078 28
9663 12076 12079 28
9664 12076 12080 28
9665 12081 12082 28
9666 12081 12083 28
9667 12081 12084 28
9668 12081 12085 28
9669 12086 12087 28
9670 12086 12088 28
9671 12086 12089 28
9672 12086 12090 28
9673 12091 12092 28
9674 12091 12093 28
9675 12091 12094 28
9676 12091 12095 28
9677 12096 12097 28
9678 12096 12098 28
9679 12096 12099 28
9680 12096 12100 28
9681 12101 12102 28
9682 12101 12103 28
9683 12101 12104 28
9684 12101 12105 28
9685 12106 12107 28
9686 12106 12108 28
9687 12106 12109 28
9688 12106 12110 28
9689 12111 12112 28
9690 12111 12113 28
9691 12111 12114 28
9692 12111 12115 28
9693 12116 12117 28
9694 12116 12118 28
9695 12116 12119 28
9696 12116 12120 28
9697 12121 12122 28
9698 12121 12123 28
9699 12121 12124 28
9700 12121 12125 28
9701 12126 12127 28
9702 12126 12128 28
9703 12126 12129 28
9704 12126 12130 28
9705 12131 12132 28
9706 12131 12133 28
9707 12131 12134 28
9708 12131 12135 28
9709 12136 12137 28
9710 12136 12138 28
9711 12136 12139 28
9712 12136 12140 28
9713 12141 12142 28
9714 12141 12143 28
9715 12141 12144 28
9716 12141 12145 28
9717 12146 12147 28
9718 12146 12148 28
9719 12146 12149 28
9720 12146 12150 28
9721 12151 12152 28
9722 12151 12153 28
9723 12151 12154 28
9724 12151 12155 28
9725 12156 12157 28
9726 12156 12158 28
9727 12156 12159 28
9728 12156 12160 28
9729 12161 12162 28
9730 12161 12163 28
9731 12161 12164 28
9732 12161 12165 28
9733 12166 12167 28
9734 12166 12168 28
9735 12166 12169 28
9736 12166 12170 28
9737 12171 12172 28
9738 12171 12173 28
9739 12171 12174 28
9740 12171 12175 28
9741 12176 12177 28
9742 12176 12178 28
9743 12176 12179 28
9744 12176 12180 28
9745 12181 12182 28
9746 12181 12183 28
9747 12181 12184 28
9748 12181 12185 28
9749 12186 12187 28
9750 12186 12188 28
9751 12186 12189 28
9752 12186 12190 28
9753 12191 12192 28
9754 12191 12193 28
9755 12191 12194 28
9756 12191 12195 28
9757 12196 12197 28
9758 12196 12198 28
9759 12196 12199 28
9760 12196 12200 28
9761 12201 12202 28
9762 12201 12203 28
9763 12201 12204 28
9764 12201 12205 28
9765 12206 12207 28
9766 12206 12208 28
9767 12206 12209 28
9768 12206 12210 28
9769 12211 12212 28
9770 12211 12213 28
9771 12211 12214 28
9772 12211 12215 28
9773 12216 12217 28
9774 12216 12218 28
9775 12216 12219 28
9776 12216 12220 28
9777 12221 12222 28
9778 12221 12223 28
9779 12221 12224 28
9780 12221 12225 28
9781 12226 12227 28
9782 12226 12228 28
9783 12226 12229 28
9784 12226 12230 28
9785 12231 12232 28
9786 12231 12233 28
9787 12231 12234 28
9788 12231 12235 28
9789 12236 12237 28
9790 12236 12238 28
9791 12236 12239 28
9792 12236 12240 28
9793 12241 12242 28
9794 12241 12243 28
9795 12241 12244 28
9796 12241 12245 28
9797 12246 12247 28
9798 12246 12248 28
9799 12246 12249 28
9800 12246 12250 28
9801 12251 12252 28
9802 12251 12253 28
9803 12251 12254 28
9804 12251 12255 28
9805 12256 12257 28
9806 12256 12258 28
9807 12256 12259 28
9808 12256 12260 28
9809 12261 12262 28
9810 12261 12263 28
9811 12261 12264 28
9812 12261 12265 28
9813 12266 12267 28
9814 12266 12268 28
9815 12266 12269 28
9816 12266 12270 28
9817 12271 12272 28
9818 12271 12273 28
9819 12271 12274 28
9820 12271 12275 28
9821 12276 12277 28
9822 12276 12278 28
9823 12276 12279 28
9824 12276 12280 28
9825 12281 12282 28
9826 12281 12283 28
9827 12281 12284 28
9828 12281 12285 28
9829 12286 12287 28
9830 12286 12288 28
9831 12286 12289 28
9832 12286 12290 28
9833 12291 12292 28
9834 12291 12293 28
9835 12291 12294 28
9836 12291 12295 28
9837 12296 12297 28
9838 12296 12298 28
9839 12296 12299 28
9840 12296 12300 28
9841 12301 12302 28
9842 12301 12303 28
9843 12301 12304 28
9844 12301 12305 28
9845 12306 12307 28
9846 12306 12308 28
9847 12306 12309 28
9848 12306 12310 28
9849 12311 12312 28
9850 12311 12313 28
9851 12311 12314 28
9852 12311 12315 28
9853 12316 12317 28
9854 12316 12318 28
9855 12316 12319 28
9856 12316 12320 28
9857 12321 12322 28
9858 12321 12323 28
9859 12321 12324 28
9860 12321 12325 28
9861 12326 12327 28
9862 12326 12328 28
9863 12326 12329 28
9864 12326 12330 28
9865 12331 12332 28
9866 12331 12333 28
9867 12331 12334 28
9868 12331 12335 28
9869 12336 12337 28
9870 12336 12338 28
9871 12336 12339 28
9872 12336 12340 28
9873 12341 12342 28
9874 12341 12343 28
9875 12341 12344 28
9876 12341 12345 28
9877 12346 12347 28
9878 12346 12348 28
9879 12346 12349 28
9880 12346 12350 28
9881 12351 12352 28
9882 12351 12353 28
9883 12351 12354 28
9884 12351 12355 28
9885 12356 12357 28
9886 12356 12358 28
9887 12356 12359 28
9888 12356 12360 28
9889 12361 12362 28
9890 12361 12363 28
9891 12361 12364 28
9892 12361 12365 28
9893 12366 12367 28
9894 12366 12368 28
9895 12366 12369 28
9896 12366 12370 28
9897 12371 12372 28
9898 12371 12373 28
9899 12371 12374 28
9900 12371 12375 28
9901 12376 12377 28
9902 12376 12378 28
9903 12376 12379 28
9904 12376 12380 28
9905 12381 12382 28
9906 12381 12383 28
9907 12381 12384 28
9908 12381 12385 28
9909 12386 12387 28
9910 12386 12388 28
9911 12386 12389 28
9912 12386 12390 28
9913 12391 12392 28
9914 12391 12393 28
9915 12391 12394 28
9916 12391 12395 28
9917 12396 12397 28
9918 12396 12398 28
9919 12396 12399 28
9920 12396 12400 28
9921 12401 12402 28
9922 12401 12403 28
9923 12401 12404 28
9924 12401 12405 28
9925 12406 12407 28
9926 12406 12408 28
9927 12406 12409 28
9928 12406 12410 28
9929 12411 12412 28
9930 12411 12413 28
9931 12411 12414 28
9932 12411 12415 28
9933 12416 12417 28
9934 12416 12418 28
9935 12416 12419 28
9936 12416 12420 28
9937 12421 12422 28
9938 12421 12423 28
9939 12421 12424 28
9940 12421 12425 28
9941 12426 12427 28
9942 12426 12428 28
9943 12426 12429 28
9944 12426 12430 28
9945 12431 12432 28
9946 12431 12433 28
9947 12431 12434 28
9948 12431 12435 28
9949 12436 12437 28
9950 12436 12438 28
9951 12436 12439 28
9952 12436 12440 28
9953 12441 12442 28
9954 12441 12443 28
9955 12441 12444 28
9956 12441 12445 28
9957 12446 12447 28
9958 12446 12448 28
9959 12446 12449 28
9960 12446 12450 28
9961 12451 12452 28
9962 12451 12453 28
9963 12451 12454 28
9964 12451 12455 28
9965 12456 12457 28
9966 12456 12458 28
9967 12456 12459 28
9968 12456 12460 28
9969 12461 12462 28
9970 12461 12463 28
9971 12461 12464 28
9972 12461 12465 28
9973 12466 12467 28
9974 12466 12468 28
9975 12466 12469 28
9976 12466 12470 28
9977 12471 12472 28
9978 12471 12473 28
9979 12471 12474 28
9980 12471 12475 28
9981 12476 12477 28
9982 12476 12478 28
9983 12476 12479 28
9984 12476 12480 28
9985 12481 12482 28
9986 12481 12483 28
9987 12481 12484 28
9988 12481 12485 28
9989 12486 12487 28
9990 12486 12488 28
9991 12486 12489 28
9992 12486 12490 28
9993 12491 12492 28
9994 12491 12493 28
9995 12491 12494 28
9996 12491 12495 28
9997 12496 12497 28
9998 12496 12498 28
9999 12496 12499 28
10000 12496 12500 28
10001 12501 12502 28
10002 12501 12503 28
10003 12501 12504 28
10004 12501 12505 28
10005 12506 12507 28
10006 12506 12508 28
10007 12506 12509 28
10008 12506 12510 28
10009 12511 12512 28
10010 12511 12513 28
10011 12511 12514 28
10012 12511 12515 28
10013 12516 12517 28
10014 12516 12518 28
10015 12516 12519 28
10016 12516 12520 28
10017 12521 12522 28
10018 12521 12523 28
10019 12521 12524 28
10020 12521 12525 28
10021 12526 12527 28
10022 12526 12528 28
10023 12526 12529 28
10024 12526 12530 28
10025 12531 12532 28
10026 12531 12533 28
10027 12531 12534 28
10028 12531 12535 28
10029 12536 12537 28
10030 12536 12538 28
10031 12536 12539 28
10032 12536 12540 28
10033 12541 12542 28
10034 12541 12543 28
10035 12541 12544 28
10036 12541 12545 28
10037 12546 12547 28
10038 12546 12548 28
10039 12546 12549 28
10040 12546 12550 28
10041 12551 12552 28
10042 12551 12553 28
10043 12551 12554 28
10044 12551 12555 28
10045 12556 12557 28
10046 12556 12558 28
10047 12556 12559 28
10048 12556 12560 28
10049 12561 12562 28
10050 12561 12563 28
10051 12561 12564 28
10052 12561 12565 28
10053 12566 12567 28
10054 12566 12568 28
10055 12566 12569 28
10056 12566 12570 28
10057 12571 12572 28
10058 12571 12573 28
10059 12571 12574 28
10060 12571 12575 28
10061 12576 12577 28
10062 12576 12578 28
10063 12576 12579 28
10064 12576 12580 28
10065 12581 12582 28
10066 12581 12583 28
10067 12581 12584 28
10068 12581 12585 28
10069 12586 12587 28
10070 12586 12588 28
10071 12586 12589 28
10072 12586 12590 28
10073 12591 12592 28
10074 12591 12593 28
10075 12591 12594 28
10076 12591 12595 28
10077 12596 12597 28
10078 12596 12598 28
10079 12596 12599 28
10080 12596 12600 28
10081 12601 12602 28
10082 12601 12603 28
10083 12601 12604 28
10084 12601 12605 28
10085 12606 12607 28
10086 12606 12608 28
10087 12606 12609 28
10088 12606 12610 28
10089 12611 12612 28
10090 12611 12613 28
10091 12611 12614 28
10092 12611 12615 28
10093 12616 12617 28
10094 12616 12618 28
10095 12616 12619 28
10096 12616 12620 28
10097 12621 12622 28
10098 12621 12623 28
10099 12621 12624 28
10100 12621 12625 28
10101 12626 12627 28
10102 12626 12628 28
10103 12626 12629 28
10104 12626 12630 28
10105 12631 12632 28
10106 12631 12633 28
10107 12631 12634 28
10108 12631 12635 28
10109 12636 12637 28
10110 12636 12638 28
10111 12636 12639 28
10112 12636 12640 28
10113 12641 12642 28
10114 12641 12643 28
10115 12641 12644 28
10116 12641 12645 28
10117 12646 12647 28
10118 12646 12648 28
10119 12646 12649 28
10120 12646 12650 28
10121 12651 12652 28
10122 12651 12653 28
10123 12651 12654 28
10124 12651 12655 28
10125 12656 12657 28
10126 12656 12658 28
10127 12656 12659 28
10128 12656 12660 28
10129 12661 12662 28
10130 12661 12663 28
10131 12661 12664 28
10132 12661 12665 28
10133 12666 12667 28
10134 12666 12668 28
10135 12666 12669 28
10136 12666 12670 28
10137 12671 12672 28
10138 12671 12673 28
10139 12671 12674 28
10140 12671 12675 28
10141 12676 12677 28
10142 12676 12678 28
10143 12676 12679 28
10144 12676 12680 28
10145 12681 12682 28
10146 12681 12683 28
10147 12681 12684 28
10148 12681 12685 28
10149 12686 12687 28
10150 12686 12688 28
10151 12686 12689 28
10152 12686 12690 28
10153 12691 12692 28
10154 12691 12693 28
10155 12691 12694 28
10156 12691 12695 28
10157 12696 12697 28
10158 12696 12698 28
10159 12696 12699 28
10160 12696 12700 28
10161 12701 12702 28
10162 12701 12703 28
10163 12701 12704 28
10164 12701 12705 28
10165 12706 12707 28
10166 12706 12708 28
10167 12706 12709 28
10168 12706 12710 28
10169 12711 12712 28
10170 12711 12713 28
10171 12711 12714 28
10172 12711 12715 28
10173 12716 12717 28
10174 12716 12718 28
10175 12716 12719 28
10176 12716 12720 28
10177 12721 12722 28
10178 12721 12723 28
10179 12721 12724 28
10180 12721 12725 28
10181 12726 12727 28
10182 12726 12728 28
10183 12726 12729 28
10184 12726 12730 28
10185 12731 12732 28
10186 12731 12733 28
10187 12731 12734 28
10188 12731 12735 28
10189 12736 12737 28
10190 12736 12738 28
10191 12736 12739 28
10192 12736 12740 28
10193 12741 12742 28
10194 12741 12743 28
10195 12741 12744 28
10196 12741 12745 28
10197 12746 12747 28
10198 12746 12748 28
10199 12746 12749 28
10200 12746 12750 28
10201 12751 12752 28
10202 12751 12753 28
10203 12751 12754 28
10204 12751 12755 28
10205 12756 12757 28
10206 12756 12758 28
10207 12756 12759 28
10208 12756 12760 28
10209 12761 12762 28
10210 12761 12763 28
10211 12761 12764 28
10212 12761 12765 28
10213 12766 12767 28
10214 12766 12768 28
10215 12766 12769 28
10216 12766 12770 28
10217 12771 12772 28
10218 12771 12773 28
10219 12771 12774 28
10220 12771 12775 28
10221 12776 12777 28
10222 12776 12778 28
10223 12776 12779 28
10224 12776 12780 28
10225 12781 12782 28
10226 12781 12783 28
10227 12781 12784 28
10228 12781 12785 28
10229 12786 12787 28
10230 12786 12788 28
10231 12786 12789 28
10232 12786 12790 28
10233 12791 12792 28
10234 12791 12793 28
10235 12791 12794 28
10236 12791 12795 28
10237 12796 12797 28
10238 12796 12798 28
10239 12796 12799 28
10240 12796 12800 28
10241 12801 12802 28
10242 12801 12803 28
10243 12801 12804 28
10244 12801 12805 28
10245 12806 12807 28
10246 12806 12808 28
10247 12806 12809 28
10248 12806 12810 28
10249 12811 12812 28
10250 12811 12813 28
10251 12811 12814 28
10252 12811 12815 28
10253 12816 12817 28
10254 12816 12818 28
10255 12816 12819 28
10256 12816 12820 28
10257 12821 12822 28
10258 12821 12823 28
10259 12821 12824 28
10260 12821 12825 28
10261 12826 12827 28
10262 12826 12828 28
10263 12826 12829 28
10264 12826 12830 28
10265 12831 12832 28
10266 12831 12833 28
10267 12831 12834 28
10268 12831 12835 28
10269 12836 12837 28
10270 12836 12838 28
10271 12836 12839 28
10272 12836 12840 28
10273 12841 12842 28
10274 12841 12843 28
10275 12841 12844 28
10276 12841 12845 28
10277 12846 12847 28
10278 12846 12848 28
10279 12846 12849 28
10280 12846 12850 28
10281 12851 12852 28
10282 12851 12853 28
10283 12851 12854 28
10284 12851 12855 28
10285 12856 12857 28
10286 12856 12858 28
10287 12856 12859 28
10288 12856 12860 28
10289 12861 12862 28
10290 12861 12863 28
10291 12861 12864 28
10292 12861 12865 28
10293 12866 12867 28
10294 12866 12868 28
10295 12866 12869 28
10296 12866 12870 28
10297 12871 12872 28
10298 12871 12873 28
10299 12871 12874 28
10300 12871 12875 28
10301 12876 12877 28
10302 12876 12878 28
10303 12876 12879 28
10304 12876 12880 28
10305 12881 12882 28
10306 12881 12883 28
10307 12881 12884 28
10308 12881 12885 28
10309 12886 12887 28
10310 12886 12888 28
10311 12886 12889 28
10312 12886 12890 28
10313 12891 12892 28
10314 12891 12893 28
10315 12891 12894 28
10316 12891 12895 28
10317 12896 12897 28
10318 12896 12898 28
10319 12896 12899 28
10320 12896 12900 28
10321 12901 12902 28
10322 12901 12903 28
10323 12901 12904 28
10324 12901 12905 28
10325 12906 12907 28
10326 12906 12908 28
10327 12906 12909 28
10328 12906 12910 28
10329 12911 12912 28
10330 12911 12913 28
10331 12911 12914 28
10332 12911 12915 28
10333 12916 12917 28
10334 12916 12918 28
10335 12916 12919 28
10336 12916 12920 28
10337 12921 12922 28
10338 12921 12923 28
10339 12921 12924 28
10340 12921 12925 28
10341 12926 12927 28
10342 12926 12928 28
10343 12926 12929 28
10344 12926 12930 28
10345 12931 12932 28
10346 12931 12933 28
10347 12931 12934 28
10348 12931 12935 28
10349 12936 12937 28
10350 12936 12938 28
10351 12936 12939 28
10352 12936 12940 28
10353 12941 12942 28
10354 12941 12943 28
10355 12941 12944 28
10356 12941 12945 28
10357 12946 12947 28
10358 12946 12948 28
10359 12946 12949 28
10360 12946 12950 28
10361 12951 12952 28
10362 12951 12953 28
10363 12951 12954 28
10364 12951 12955 28
10365 12956 12957 28
10366 12956 12958 28
10367 12956 12959 28
10368 12956 12960 28
10369 12961 12962 28
10370 12961 12963 28
10371 12961 12964 28
10372 12961 12965 28
10373 12966 12967 28
10374 12966 12968 28
10375 12966 12969 28
10376 12966 12970 28
10377 12971 12972 28
10378 12971 12973 28
10379 12971 12974 28
10380 12971 12975 28
10381 12976 12977 28
10382 12976 12978 28
10383 12976 12979 28
10384 12976 12980 28
10385 12981 12982 28
10386 12981 12983 28
10387 12981 12984 28
10388 12981 12985 28
10389 12986 12987 28
10390 12986 12988 28
10391 12986 12989 28
10392 12986 12990 28
10393 12991 12992 28
10394 12991 12993 28
10395 12991 12994 28
10396 12991 12995 28
10397 12996 12997 28
10398 12996 12998 28
10399 12996 12999 28
10400 12996 13000 28
10401 13001 13002 28
10402 13001 13003 28
10403 13001 13004 28
10404 13001 13005 28
10405 13006 13007 28
10406 13006 13008 28
10407 13006 13009 28
10408 13006 13010 28
10409 13011 13012 28
10410 13011 13013 28
10411 13011 13014 28
10412 13011 13015 28
10413 13016 13017 28
10414 13016 13018 28
10415 13016 13019 28
10416 13016 13020 28
10417 13021 13022 28
10418 13021 13023 28
10419 13021 13024 28
10420 13021 13025 28
10421 13026 13027 28
10422 13026 13028 28
10423 13026 13029 28
10424 13026 13030 28
10425 13031 13032 28
10426 13031 13033 28
10427 13031 13034 28
10428 13031 13035 28
10429 13036 13037 28
10430 13036 13038 28
10431 13036 13039 28
10432 13036 13040 28
10433 13041 13042 28
10434 13041 13043 28
10435 13041 13044 28
10436 13041 13045 28
10437 13046 13047 28
10438 13046 13048 28
10439 13046 13049 28
10440 13046 13050 28
10441 13051 13052 28
10442 13051 13053 28
10443 13051 13054 28
10444 13051 13055 28
10445 13056 13057 28
10446 13056 13058 28
10447 13056 13059 28
10448 13056 13060 28
10449 13061 13062 28
10450 13061 13063 28
10451 13061 13064 28
10452 13061 13065 28
10453 13066 13067 28
10454 13066 13068 28
10455 13066 13069 28
10456 13066 13070 28
10457 13071 13072 28
10458 13071 13073 28
10459 13071 13074 28
10460 13071 13075 28
10461 13076 13077 28
10462 13076 13078 28
10463 13076 13079 28
10464 13076 13080 28
10465 13081 13082 28
10466 13081 13083 28
10467 13081 13084 28
10468 13081 13085 28
10469 13086 13087 28
10470 13086 13088 28
10471 13086 13089 28
10472 13086 13090 28
10473 13091 13092 28
10474 13091 13093 28
10475 13091 13094 28
10476 13091 13095 28
10477 13096 13097 28
10478 13096 13098 28
10479 13096 13099 28
10480 13096 13100 28
10481 13101 13102 28
10482 13101 13103 28
10483 13101 13104 28
10484 13101 13105 28
10485 13106 13107 28
10486 13106 13108 28
10487 13106 13109 28
10488 13106 13110 28
10489 13111 13112 28
10490 13111 13113 28
10491 13111 13114 28
10492 13111 13115 28
10493 13116 13117 28
10494 13116 13118 28
10495 13116 13119 28
10496 13116 13120 28
10497 13121 13122 28
10498 13121 13123 28
10499 13121 13124 28
10500 13121 13125 28
10501 13126 13127 28
10502 13126 13128 28
10503 13126 13129 28
10504 13126 13130 28
10505 13131 13132 28
10506 13131 13133 28
10507 13131 13134 28
10508 13131 13135 28
10509 13136 13137 28
10510 13136 13138 28
10511 13136 13139 28
10512 13136 13140 28
10513 13141 13142 28
10514 13141 13143 28
10515 13141 13144 28
10516 13141 13145 28
10517 13146 13147 28
10518 13146 13148 28
10519 13146 13149 28
10520 13146 13150 28
10521 13151 13152 28
10522 13151 13153 28
10523 13151 13154 28
10524 13151 13155 28
10525 13156 13157 28
10526 13156 13158 28
10527 13156 13159 28
10528 13156 13160 28
10529 13161 13162 28
10530 13161 13163 28
10531 13161 13164 28
10532 13161 13165 28
10533 13166 13167 28
10534 13166 13168 28
10535 13166 13169 28
10536 13166 13170 28
10537 13171 13172 28
10538 13171 13173 28
10539 13171 13174 28
10540 13171 13175 28
10541 13176 13177 28
10542 13176 13178 28
10543 13176 13179 28
10544 13176 13180 28
10545 13181 13182 28
10546 13181 13183 28
10547 13181 13184 28
10548 13181 13185 28
10549 13186 13187 28
10550 13186 13188 28
10551 13186 13189 28
10552 13186 13190 28
10553 13191 13192 28
10554 13191 13193 28
10555 13191 13194 28
10556 13191 13195 28
10557 13196 13197 28
10558 13196 13198 28
10559 13196 13199 28
10560 13196 13200 28
10561 13201 13202 28
10562 13201 13203 28
10563 13201 13204 28
10564 13201 13205 28
10565 13206 13207 28
10566 13206 13208 28
10567 13206 13209 28
10568 13206 13210 28
10569 13211 13212 28
10570 13211 13213 28
10571 13211 13214 28
10572 13211 13215 28
10573 13216 13217 28
10574 13216 13218 28
10575 13216 13219 28
10576 13216 13220 28
10577 13221 13222 28
10578 13221 13223 28
10579 13221 13224 28
10580 13221 13225 28
10581 13226 13227 28
10582 13226 13228 28
10583 13226 13229 28
10584 13226 13230 28
10585 13231 13232 28
10586 13231 13233 28
10587 13231 13234 28
10588 13231 13235 28
10589 13236 13237 28
10590 13236 13238 28
10591 13236 13239 28
10592 13236 13240 28
10593 13241 13242 28
10594 13241 13243 28
10595 13241 13244 28
10596 13241 13245 28
10597 13246 13247 28
10598 13246 13248 28
10599 13246 13249 28
10600 13246 13250 28
10601 13251 13252 28
10602 13251 13253 28
10603 13251 13254 28
10604 13251 13255 28
10605 13256 13257 28
10606 13256 13258 28
10607 13256 13259 28
10608 13256 13260 28
10609 13261 13262 28
10610 13261 13263 28
10611 13261 13264 28
10612 13261 13265 28
10613 13266 13267 28
10614 13266 13268 28
10615 13266 13269 28
10616 13266 13270 28
10617 13271 13272 28
10618 13271 13273 28
10619 13271 13274 28
10620 13271 13275 28
10621 13276 13277 28
10622 13276 13278 28
10623 13276 13279 28
10624 13276 13280 28
10625 13281 13282 28
10626 13281 13283 28
10627 13281 13284 28
10628 13281 13285 28
10629 13286 13287 28
10630 13286 13288 28
10631 13286 13289 28
10632 13286 13290 28
10633 13291 13292 28
10634 13291 13293 28
10635 13291 13294 28
10636 13291 13295 28
10637 13296 13297 28
10638 13296 13298 28
10639 13296 13299 28
10640 13296 13300 28
10641 13301 13302 28
10642 13301 13303 28
10643 13301 13304 28
10644 13301 13305 28
10645 13306 13307 28
10646 13306 13308 28
10647 13306 13309 28
10648 13306 13310 28
10649 13311 13312 28
10650 13311 13313 28
10651 13311 13314 28
10652 13311 13315 28
10653 13316 13317 28
10654 13316 13318 28
10655 13316 13319 28
10656 13316 13320 28
10657 13321 13322 28
10658 13321 13323 28
10659 13321 13324 28
10660 13321 13325 28
10661 13326 13327 28
10662 13326 13328 28
10663 13326 13329 28
10664 13326 13330 28
10665 13331 13332 28
10666 13331 13333 28
10667 13331 13334 28
10668 13331 13335 28
10669 13336 13337 28
10670 13336 13338 28
10671 13336 13339 28
10672 13336 13340 28
10673 13341 13342 28
10674 13341 13343 28
10675 13341 13344 28
10676 13341 13345 28
10677 13346 13347 28
10678 13346 13348 28
10679 13346 13349 28
10680 13346 13350 28
10681 13351 13352 28
10682 13351 13353 28
10683 13351 13354 28
10684 13351 13355 28
10685 13356 13357 28
10686 13356 13358 28
10687 13356 13359 28
10688 13356 13360 28
10689 13361 13362 28
10690 13361 13363 28
10691 13361 13364 28
10692 13361 13365 28
10693 13366 13367 28
10694 13366 13368 28
10695 13366 13369 28
10696 13366 13370 28
10697 13371 13372 28
10698 13371 13373 28
10699 13371 13374 28
10700 13371 13375 28
10701 13376 13377 28
10702 13376 13378 28
10703 13376 13379 28
10704 13376 13380 28
10705 13381 13382 28
10706 13381 13383 28
10707 13381 13384 28
10708 13381 13385 28
10709 13386 13387 28
10710 13386 13388 28
10711 13386 13389 28
10712 13386 13390 28
10713 13391 13392 28
10714 13391 13393 28
10715 13391 13394 28
10716 13391 13395 28
10717 13396 13397 28
10718 13396 13398 28
10719 13396 13399 28
10720 13396 13400 28
10721 13401 13402 28
10722 13401 13403 28
10723 13401 13404 28
10724 13401 13405 28
10725 13406 13407 28
10726 13406 13408 28
10727 13406 13409 28
10728 13406 13410 28
10729 13411 13412 28
10730 13411 13413 28
10731 13411 13414 28
10732 13411 13415 28
10733 13416 13417 28
10734 13416 13418 28
10735 13416 13419 28
10736 13416 13420 28
10737 13421 13422 28
10738 13421 13423 28
10739 13421 13424 28
10740 13421 13425 28
10741 13426 13427 28
10742 13426 13428 28
10743 13426 13429 28
10744 13426 13430 28
10745 13431 13432 28
10746 13431 13433 28
10747 13431 13434 28
10748 13431 13435 28
10749 13436 13437 28
10750 13436 13438 28
10751 13436 13439 28
10752 13436 13440 28
10753 13441 13442 28
10754 13441 13443 28
10755 13441 13444 28
10756 13441 13445 28
10757 13446 13447 28
10758 13446 13448 28
10759 13446 13449 28
10760 13446 13450 28
10761 13451 13452 28
10762 13451 13453 28
10763 13451 13454 28
10764 13451 13455 28
10765 13456 13457 28
10766 13456 13458 28
10767 13456 13459 28
10768 13456 13460 28
10769 13461 13462 28
10770 13461 13463 28
10771 13461 13464 28
10772 13461 13465 28
10773 13466 13467 28
10774 13466 13468 28
10775 13466 13469 28
10776 13466 13470 28
10777 13471 13472 28
10778 13471 13473 28
10779 13471 13474 28
10780 13471 13475 28
10781 13476 13477 28
10782 13476 13478 28
10783 13476 13479 28
10784 13476 13480 28
10785 13481 13482 28
10786 13481 13483 28
10787 13481 13484 28
10788 13481 13485 28
10789 13486 13487 28
10790 13486 13488 28
10791 13486 13489 28
10792 13486 13490 28
10793 13491 13492 28
10794 13491 13493 28
10795 13491 13494 28
10796 13491 13495 28
10797 13496 13497 28
10798 13496 13498 28
10799 13496 13499 28
10800 13496 13500 28
10801 13501 13502 28
10802 13501 13503 28
10803 13501 13504 28
10804 13501 13505 28
10805 13506 13507 28
10806 13506 13508 28
10807 13506 13509 28
10808 13506 13510 28
10809 13511 13512 28
10810 13511 13513 28
10811 13511 13514 28
10812 13511 13515 28
10813 13516 13517 28
10814 13516 13518 28
10815 13516 13519 28
10816 13516 13520 28
10817 13521 13522 28
10818 13521 13523 28
10819 13521 13524 28
10820 13521 13525 28
10821 13526 13527 28
10822 13526 13528 28
10823 13526 13529 28
10824 13526 13530 28
10825 13531 13532 28
10826 13531 13533 28
10827 13531 13534 28
10828 13531 13535 28
10829 13536 13537 28
10830 13536 13538 28
10831 13536 13539 28
10832 13536 13540 28
10833 13541 13542 28
10834 13541 13543 28
10835 13541 13544 28
10836 13541 13545 28
10837 13546 13547 28
10838 13546 13548 28
10839 13546 13549 28
10840 13546 13550 28
10841 13551 13552 28
10842 13551 13553 28
10843 13551 13554 28
10844 13551 13555 28
10845 13556 13557 28
10846 13556 13558 28
10847 13556 13559 28
10848 13556 13560 28
10849 13561 13562 28
10850 13561 13563 28
10851 13561 13564 28
10852 13561 13565 28
10853 13566 13567 28
10854 13566 13568 28
10855 13566 13569 28
10856 13566 13570 28
10857 13571 13572 28
10858 13571 13573 28
10859 13571 13574 28
10860 13571 13575 28
10861 13576 13577 28
10862 13576 13578 28
10863 13576 13579 28
10864 13576 13580 28
10865 13581 13582 28
10866 13581 13583 28
10867 13581 13584 28
10868 13581 13585 28
10869 13586 13587 28
10870 13586 13588 28
10871 13586 13589 28
10872 13586 13590 28
10873 13591 13592 28
10874 13591 13593 28
10875 13591 13594 28
10876 13591 13595 28
10877 13596 13597 28
10878 13596 13598 28
10879 13596 13599 28
10880 13596 13600 28
10881 13601 13602 28
10882 13601 13603 28
10883 13601 13604 28
10884 13601 13605 28
10885 13606 13607 28
10886 13606 13608 28
10887 13606 13609 28
10888 13606 13610 28
10889 13611 13612 28
10890 13611 13613 28
10891 13611 13614 28
10892 13611 13615 28
10893 13616 13617 28
10894 13616 13618 28
10895 13616 13619 28
10896 13616 13620 28
10897 13621 13622 28
10898 13621 13623 28
10899 13621 13624 28
10900 13621 13625 28
10901 13626 13627 28
10902 13626 13628 28
10903 13626 13629 28
10904 13626 13630 28
10905 13631 13632 28
10906 13631 13633 28
10907 13631 13634 28
10908 13631 13635 28
10909 13636 13637 28
10910 13636 13638 28
10911 13636 13639 28
10912 13636 13640 28
10913 13641 13642 28
10914 13641 13643 28
10915 13641 13644 28
10916 13641 13645 28
10917 13646 13647 28
10918 13646 13648 28
10919 13646 13649 28
10920 13646 13650 28
10921 13651 13652 28
10922 13651 13653 28
10923 13651 13654 28
10924 13651 13655 28
10925 13656 13657 28
10926 13656 13658 28
10927 13656 13659 28
10928 13656 13660 28
10929 13661 13662 28
10930 13661 13663 28
10931 13661 13664 28
10932 13661 13665 28
10933 13666 13667 28
10934 13666 13668 28
10935 13666 13669 28
10936 13666 13670 28
10937 13671 13672 28
10938 13671 13673 28
10939 13671 13674 28
10940 13671 13675 28
10941 13676 13677 28
10942 13676 13678 28
10943 13676 13679 28
10944 13676 13680 28
10945 13681 13682 28
10946 13681 13683 28
10947 13681 13684 28
10948 13681 13685 28
10949 13686 13687 28
10950 13686 13688 28
10951 13686 13689 28
10952 13686 13690 28
10953 13691 13692 28
10954 13691 13693 28
10955 13691 13694 28
10956 13691 13695 28
10957 13696 13697 28
10958 13696 13698 28
10959 13696 13699 28
10960 13696 13700 28
10961 13701 13702 28
10962 13701 13703 28
10963 13701 13704 28
10964 13701 13705 28
10965 13706 13707 28
10966 13706 13708 28
10967 13706 13709 28
10968 13706 13710 28
10969 13711 13712 28
10970 13711 13713 28
10971 13711 13714 28
10972 13711 13715 28
10973 13716 13717 28
10974 13716 13718 28
10975 13716 13719 28
10976 13716 13720 28
10977 13721 13722 28
10978 13721 13723 28
10979 13721 13724 28
10980 13721 13725 28
10981 13726 13727 28
10982 13726 13728 28
10983 13726 13729 28
10984 13726 13730 28
10985 13731 13732 28
10986 13731 13733 28
10987 13731 13734 28
10988 13731 13735 28
10989 13736 13737 28
10990 13736 13738 28
10991 13736 13739 28
10992 13736 13740 28
10993 13741 13742 28
10994 13741 13743 28
10995 13741 13744 28
10996 13741 13745 28
10997 13746 13747 28
10998 13746 13748 28
10999 13746 13749 28
11000 13746 13750 28
11001 13751 13752 28
11002 13751 13753 28
11003 13751 13754 28
11004 13751 13755 28
11005 13756 13757 28
11006 13756 13758 28
11007 13756 13759 28
11008 13756 13760 28
11009 13761 13762 28
11010 13761 13763 28
11011 13761 13764 28
11012 13761 13765 28
11013 13766 13767 28
11014 13766 13768 28
11015 13766 13769 28
11016 13766 13770 28
11017 13771 13772 28
11018 13771 13773 28
11019 13771 13774 28
11020 13771 13775 28
11021 13776 13777 28
11022 13776 13778 28
11023 13776 13779 28
11024 13776 13780 28
11025 13781 13782 28
11026 13781 13783 28
11027 13781 13784 28
11028 13781 13785 28
11029 13786 13787 28
11030 13786 13788 28
11031 13786 13789 28
11032 13786 13790 28
11033 13791 13792 28
11034 13791 13793 28
11035 13791 13794 28
11036 13791 13795 28
11037 13796 13797 28
11038 13796 13798 28
11039 13796 13799 28
11040 13796 13800 28
11041 13801 13802 28
11042 13801 13803 28
11043 13801 13804 28
11044 13801 13805 28
11045 13806 13807 28
11046 13806 13808 28
11047 13806 13809 28
11048 13806 13810 28
11049 13811 13812 28
11050 13811 13813 28
11051 13811 13814 28
11052 13811 13815 28
11053 13816 13817 28
11054 13816 13818 28
11055 13816 13819 28
11056 13816 13820 28
11057 13821 13822 28
11058 13821 13823 28
11059 13821 13824 28
11060 13821 13825 28
11061 13826 13827 28
11062 13826 13828 28
11063 13826 13829 28
11064 13826 13830 28
11065 13831 13832 28
11066 13831 13833 28
11067 13831 13834 28
11068 13831 13835 28
11069 13836 13837 28
11070 13836 13838 28
11071 13836 13839 28
11072 13836 13840 28
11073 13841 13842 28
11074 13841 13843 28
11075 13841 13844 28
11076 13841 13845 28
11077 13846 13847 28
11078 13846 13848 28
11079 13846 13849 28
11080 13846 13850 28
11081 13851 13852 28
11082 13851 13853 28
11083 13851 13854 28
11084 13851 13855 28
11085 13856 13857 28
11086 13856 13858 28
11087 13856 13859 28
11088 13856 13860 28
11089 13861 13862 28
11090 13861 13863 28
11091 13861 13864 28
11092 13861 13865 28
11093 13866 13867 28
11094 13866 13868 28
11095 13866 13869 28
11096 13866 13870 28
11097 13871 13872 28
11098 13871 13873 28
11099 13871 13874 28
11100 13871 13875 28
11101 13876 13877 28
11102 13876 13878 28
11103 13876 13879 28
11104 13876 13880 28
11105 13881 13882 28
11106 13881 13883 28
11107 13881 13884 28
11108 13881 13885 28
11109 13886 13887 28
11110 13886 13888 28
11111 13886 13889 28
11112 13886 13890 28
11113 13891 13892 28
11114 13891 13893 28
11115 13891 13894 28
11116 13891 13895 28
11117 13896 13897 28
11118 13896 13898 28
11119 13896 13899 28
11120 13896 13900 28
11121 13901 13902 28
11122 13901 13903 28
11123 13901 13904 28
11124 13901 13905 28
11125 13906 13907 28
11126 13906 13908 28
11127 13906 13909 28
11128 13906 13910 28
11129 13911 13912 28
11130 13911 13913 28
11131 13911 13914 28
11132 13911 13915 28
11133 13916 13917 28
11134 13916 13918 28
11135 13916 13919 28
11136 13916 13920 28
11137 13921 13922 28
11138 13921 13923 28
11139 13921 13924 28
11140 13921 13925 28
11141 13926 13927 28
11142 13926 13928 28
11143 13926 13929 28
11144 13926 13930 28
11145 13931 13932 28
11146 13931 13933 28
11147 13931 13934 28
11148 13931 13935 28
11149 13936 13937 28
11150 13936 13938 28
11151 13936 13939 28
11152 13936 13940 28
11153 13941 13942 28
11154 13941 13943 28
11155 13941 13944 28
11156 13941 13945 28
11157 13946 13947 28
11158 13946 13948 28
11159 13946 13949 28
11160 13946 13950 28
11161 13951 13952 28
11162 13951 13953 28
11163 13951 13954 28
11164 13951 13955 28
11165 13956 13957 28
11166 13956 13958 28
11167 13956 13959 28
11168 13956 13960 28
11169 13961 13962 28
11170 13961 13963 28
11171 13961 13964 28
11172 13961 13965 28
11173 13966 13967 28
11174 13966 13968 28
11175 13966 13969 28
11176 13966 13970 28
11177 13971 13972 28
11178 13971 13973 28
11179 13971 13974 28
11180 13971 13975 28
11181 13976 13977 28
11182 13976 13978 28
11183 13976 13979 28
11184 13976 13980 28
11185 13981 13982 28
11186 13981 13983 28
11187 13981 13984 28
11188 13981 13985 28
11189 13986 13987 28
11190 13986 13988 28
11191 13986 13989 28
11192 13986 13990 28
11193 13991 13992 28
11194 13991 13993 28
11195 13991 13994 28
11196 13991 13995 28
11197 13996 13997 28
11198 13996 13998 28
11199 13996 13999 28
11200 13996 14000 28
11201 14001 14002 28
11202 14001 14003 28
11203 14001 14004 28
11204 14001 14005 28
11205 14006 14007 28
11206 14006 14008 28
11207 14006 14009 28
11208 14006 14010 28
11209 14011 14012 28
11210 14011 14013 28
11211 14011 14014 28
11212 14011 14015 28
11213 14016 14017 28
11214 14016 14018 28
11215 14016 14019 28
11216 14016 14020 28
11217 14021 14022 28
11218 14021 14023 28
11219 14021 14024 28
11220 14021 14025 28
11221 14026 14027 28
11222 14026 14028 28
11223 14026 14029 28
11224 14026 14030 28
11225 14031 14032 28
11226 14031 14033 28
11227 14031 14034 28
11228 14031 14035 28
11229 14036 14037 28
11230 14036 14038 28
11231 14036 14039 28
11232 14036 14040 28
11233 14041 14042 28
11234 14041 14043 28
11235 14041 14044 28
11236 14041 14045 28
11237 14046 14047 28
11238 14046 14048 28
11239 14046 14049 28
11240 14046 14050 28
11241 14051 14052 28
11242 14051 14053 28
11243 14051 14054 28
11244 14051 14055 28
11245 14056 14057 28
11246 14056 14058 28
11247 14056 14059 28
11248 14056 14060 28
11249 14061 14062 28
11250 14061 14063 28
11251 14061 14064 28
11252 14061 14065 28
11253 14066 14067 28
11254 14066 14068 28
11255 14066 14069 28
11256 14066 14070 28
11257 14071 14072 28
11258 14071 14073 28
11259 14071 14074 28
11260 14071 14075 28
11261 14076 14077 28
11262 14076 14078 28
11263 14076 14079 28
11264 14076 14080 28
11265 14081 14082 28
11266 14081 14083 28
11267 14081 14084 28
11268 14081 14085 28
11269 14086 14087 28
11270 14086 14088 28
11271 14086 14089 28
11272 14086 14090 28
11273 14091 14092 28
11274 14091 14093 28
11275 14091 14094 28
11276 14091 14095 28
11277 14096 14097 28
11278 14096 14098 28
11279 14096 14099 28
11280 14096 14100 28
11281 14101 14102 28
11282 14101 14103 28
11283 14101 14104 28
11284 14101 14105 28
11285 14106 14107 28
11286 14106 14108 28
11287 14106 14109 28
11288 14106 14110 28
11289 14111 14112 28
11290 14111 14113 28
11291 14111 14114 28
11292 14111 14115 28
11293 14116 14117 28
11294 14116 14118 28
11295 14116 14119 28
11296 14116 14120 28
11297 14121 14122 28
11298 14121 14123 28
11299 14121 14124 28
11300 14121 14125 28
11301 14126 14127 28
11302 14126 14128 28
11303 14126 14129 28
11304 14126 14130 28
11305 14131 14132 28
11306 14131 14133 28
11307 14131 14134 28
11308 14131 14135 28
11309 14136 14137 28
11310 14136 14138 28
11311 14136 14139 28
11312 14136 14140 28
11313 14141 14142 28
11314 14141 14143 28
11315 14141 14144 28
11316 14141 14145 28
11317 14146 14147 28
11318 14146 14148 28
11319 14146 14149 28
11320 14146 14150 28
11321 14151 14152 28
11322 14151 14153 28
11323 14151 14154 28
11324 14151 14155 28
11325 14156 14157 28
11326 14156 14158 28
11327 14156 14159 28
11328 14156 14160 28
11329 14161 14162 28
11330 14161 14163 28
11331 14161 14164 28
11332 14161 14165 28
11333 14166 14167 28
11334 14166 14168 28
11335 14166 14169 28
11336 14166 14170 28
11337 14171 14172 28
11338 14171 14173 28
11339 14171 14174 28
11340 14171 14175 28
11341 14176 14177 28
11342 14176 14178 28
11343 14176 14179 28
11344 14176 14180 28
11345 14181 14182 28
11346 14181 14183 28
11347 14181 14184 28
11348 14181 14185 28
11349 14186 14187 28
11350 14186 14188 28
11351 14186 14189 28
11352 14186 14190 28
11353 14191 14192 28
11354 14191 14193 28
11355 14191 14194 28
11356 14191 14195 28
11357 14196 14197 28
11358 14196 14198 28
11359 14196 14199 28
11360 14196 14200 28
11361 14201 14202 28
11362 14201 14203 28
11363 14201 14204 28
11364 14201 14205 28
11365 14206 14207 28
11366 14206 14208 28
11367 14206 14209 28
11368 14206 14210 28
11369 14211 14212 28
11370 14211 14213 28
11371 14211 14214 28
11372 14211 14215 28
11373 14216 14217 28
11374 14216 14218 28
11375 14216 14219 28
11376 14216 14220 28
11377 14221 14222 28
11378 14221 14223 28
11379 14221 14224 28
11380 14221 14225 28
11381 14226 14227 28
11382 14226 14228 28
11383 14226 14229 28
11384 14226 14230 28
11385 14231 14232 28
11386 14231 14233 28
11387 14231 14234 28
11388 14231 14235 28
11389 14236 14237 28
11390 14236 14238 28
11391 14236 14239 28
11392 14236 14240 28
11393 14241 14242 28
11394 14241 14243 28
11395 14241 14244 28
11396 14241 14245 28
11397 14246 14247 28
11398 14246 14248 28
11399 14246 14249 28
11400 14246 14250 28
11401 14251 14252 28
11402 14251 14253 28
11403 14251 14254 28
11404 14251 14255 28
11405 14256 14257 28
11406 14256 14258 28
11407 14256 14259 28
11408 14256 14260 28
11409 14261 14262 28
11410 14261 14263 28
11411 14261 14264 28
11412 14261 14265 28
11413 14266 14267 28
11414 14266 14268 28
11415 14266 14269 28
11416 14266 14270 28
11417 14271 14272 28
11418 14271 14273 28
11419 14271 14274 28
11420 14271 14275 28
11421 14276 14277 28
11422 14276 14278 28
11423 14276 14279 28
11424 14276 14280 28
11425 14281 14282 28
11426 14281 14283 28
11427 14281 14284 28
11428 14281 14285 28
11429 14286 14287 28
11430 14286 14288 28
11431 14286 14289 28
11432 14286 14290 28
11433 14291 14292 28
11434 14291 14293 28
11435 14291 14294 28
11436 14291 14295 28
11437 14296 14297 28
11438 14296 14298 28
11439 14296 14299 28
11440 14296 14300 28
11441 14301 14302 28
11442 14301 14303 28
11443 14301 14304 28
11444 14301 14305 28
11445 14306 14307 28
11446 14306 14308 28
11447 14306 14309 28
11448 14306 14310 28
11449 14311 14312 28
11450 14311 14313 28
11451 14311 14314 28
11452 14311 14315 28
11453 14316 14317 28
11454 14316 14318 28
11455 14316 14319 28
11456 14316 14320 28
11457 14321 14322 28
11458 14321 14323 28
11459 14321 14324 28
11460 14321 14325 28
11461 14326 14327 28
11462 14326 14328 28
11463 14326 14329 28
11464 14326 14330 28
11465 14331 14332 28
11466 14331 14333 28
11467 14331 14334 28
11468 14331 14335 28
11469 14336 14337 28
11470 14336 14338 28
11471 14336 14339 28
11472 14336 14340 28
11473 14341 14342 28
11474 14341 14343 28
11475 14341 14344 28
11476 14341 14345 28
11477 14346 14347 28
11478 14346 14348 28
11479 14346 14349 28
11480 14346 14350 28
11481 14351 14352 28
11482 14351 14353 28
11483 14351 14354 28
11484 14351 14355 28
11485 14356 14357 28
11486 14356 14358 28
11487 14356 14359 28
11488 14356 14360 28
11489 14361 14362 28
11490 14361 14363 28
11491 14361 14364 28
11492 14361 14365 28
11493 14366 14367 28
11494 14366 14368 28
11495 14366 14369 28
11496 14366 14370 28
11497 14371 14372 28
11498 14371 14373 28
11499 14371 14374 28
11500 14371 14375 28
11501 14376 14377 28
11502 14376 14378 28
11503 14376 14379 28
11504 14376 14380 28
11505 14381 14382 28
11506 14381 14383 28
11507 14381 14384 28
11508 14381 14385 28
11509 14386 14387 28
11510 14386 14388 28
11511 14386 14389 28
11512 14386 14390 28
11513 14391 14392 28
11514 14391 14393 28
11515 14391 14394 28
11516 14391 14395 28
11517 14396 14397 28
11518 14396 14398 28
11519 14396 14399 28
11520 14396 14400 28
11521 14401 14402 28
11522 14401 14403 28
11523 14401 14404 28
11524 14401 14405 28
11525 14406 14407 28
11526 14406 14408 28
11527 14406 14409 28
11528 14406 14410 28
11529 14411 14412 28
11530 14411 14413 28
11531 14411 14414 28
11532 14411 14415 28
11533 14416 14417 28
11534 14416 14418 28
11535 14416 14419 28
11536 14416 14420 28
11537 14421 14422 28
11538 14421 14423 28
11539 14421 14424 28
11540 14421 14425 28
11541 14426 14427 28
11542 14426 14428 28
11543 14426 14429 28
11544 14426 14430 28
11545 14431 14432 28
11546 14431 14433 28
11547 14431 14434 28
11548 14431 14435 28
11549 14436 14437 28
11550 14436 14438 28
11551 14436 14439 28
11552 14436 14440 28
11553 14441 14442 28
11554 14441 14443 28
11555 14441 14444 28
11556 14441 14445 28
11557 14446 14447 28
11558 14446 14448 28
11559 14446 14449 28
11560 14446 14450 28
11561 14451 14452 28
11562 14451 14453 28
11563 14451 14454 28
11564 14451 14455 28
11565 14456 14457 28
11566 14456 14458 28
11567 14456 14459 28
11568 14456 14460 28
11569 14461 14462 28
11570 14461 14463 28
11571 14461 14464 28
11572 14461 14465 28
11573 14466 14467 28
11574 14466 14468 28
11575 14466 14469 28
11576 14466 14470 28
11577 14471 14472 28
11578 14471 14473 28
11579 14471 14474 28
11580 14471 14475 28
11581 14476 14477 28
11582 14476 14478 28
11583 14476 14479 28
11584 14476 14480 28
11585 14481 14482 28
11586 14481 14483 28
11587 14481 14484 28
11588 14481 14485 28
11589 14486 14487 28
11590 14486 14488 28
11591 14486 14489 28
11592 14486 14490 28
11593 14491 14492 28
11594 14491 14493 28
11595 14491 14494 28
11596 14491 14495 28
11597 14496 14497 28
11598 14496 14498 28
11599 14496 14499 28
11600 14496 14500 28
11601 14501 14502 28
11602 14501 14503 28
11603 14501 14504 28
11604 14501 14505 28
11605 14506 14507 28
11606 14506 14508 28
11607 14506 14509 28
11608 14506 14510 28
11609 14511 14512 28
11610 14511 14513 28
11611 14511 14514 28
11612 14511 14515 28
11613 14516 14517 28
11614 14516 14518 28
11615 14516 14519 28
11616 14516 14520 28
11617 14521 14522 28
11618 14521 14523 28
11619 14521 14524 28
11620 14521 14525 28
11621 14526 14527 28
11622 14526 14528 28
11623 14526 14529 28
11624 14526 14530 28
11625 14531 14532 28
11626 14531 14533 28
11627 14531 14534 28
11628 14531 14535 28
11629 14536 14537 28
11630 14536 14538 28
11631 14536 14539 28
11632 14536 14540 28
11633 14541 14542 28
11634 14541 14543 28
11635 14541 14544 28
11636 14541 14545 28
11637 14546 14547 28
11638 14546 14548 28
11639 14546 14549 28
11640 14546 14550 28
11641 14551 14552 28
11642 14551 14553 28
11643 14551 14554 28
11644 14551 14555 28
11645 14556 14557 28
11646 14556 14558 28
11647 14556 14559 28
11648 14556 14560 28
11649 14561 14562 28
11650 14561 14563 28
11651 14561 14564 28
11652 14561 14565 28
11653 14566 14567 28
11654 14566 14568 28
11655 14566 14569 28
11656 14566 14570 28
11657 14571 14572 28
11658 14571 14573 28
11659 14571 14574 28
11660 14571 14575 28
11661 14576 14577 28
11662 14576 14578 28
11663 14576 14579 28
11664 14576 14580 28
11665 14581 14582 28
11666 14581 14583 28
11667 14581 14584 28
11668 14581 14585 28
11669 14586 14587 28
11670 14586 14588 28
11671 14586 14589 28
11672 14586 14590 28
11673 14591 14592 28
11674 14591 14593 28
11675 14591 14594 28
11676 14591 14595 28
11677 14596 14597 28
11678 14596 14598 28
11679 14596 14599 28
11680 14596 14600 28
11681 14601 14602 28
11682 14601 14603 28
11683 14601 14604 28
11684 14601 14605 28
11685 14606 14607 28
11686 14606 14608 28
11687 14606 14609 28
11688 14606 14610 28
11689 14611 14612 28
11690 14611 14613 28
11691 14611 14614 28
11692 14611 14615 28
11693 14616 14617 28
11694 14616 14618 28
11695 14616 14619 28
11696 14616 14620 28
11697 14621 14622 28
11698 14621 14623 28
11699 14621 14624 28
11700 14621 14625 28
11701 14626 14627 28
11702 14626 14628 28
11703 14626 14629 28
11704 14626 14630 28
11705 14631 14632 28
11706 14631 14633 28
11707 14631 14634 28
11708 14631 14635 28
11709 14636 14637 28
11710 14636 14638 28
11711 14636 14639 28
11712 14636 14640 28
11713 14641 14642 28
11714 14641 14643 28
11715 14641 14644 28
11716 14641 14645 28
11717 14646 14647 28
11718 14646 14648 28
11719 14646 14649 28
11720 14646 14650 28
11721 14651 14652 28
11722 14651 14653 28
11723 14651 14654 28
11724 14651 14655 28
11725 14656 14657 28
11726 14656 14658 28
11727 14656 14659 28
11728 14656 14660 28
11729 14661 14662 28
11730 14661 14663 28
11731 14661 14664 28
11732 14661 14665 28
11733 14666 14667 28
11734 14666 14668 28
11735 14666 14669 28
11736 14666 14670 28
11737 14671 14672 28
11738 14671 14673 28
11739 14671 14674 28
11740 14671 14675 28
11741 14676 14677 28
11742 14676 14678 28
11743 14676 14679 28
11744 14676 14680 28
11745 14681 14682 28
11746 14681 14683 28
11747 14681 14684 28
11748 14681 14685 28
11749 14686 14687 28
11750 14686 14688 28
11751 14686 14689 28
11752 14686 14690 28
11753 14691 14692 28
11754 14691 14693 28
11755 14691 14694 28
11756 14691 14695 28
11757 14696 14697 28
11758 14696 14698 28
11759 14696 14699 28
11760 14696 14700 28
11761 14701 14702 28
11762 14701 14703 28
11763 14701 14704 28
11764 14701 14705 28
11765 14706 14707 28
11766 14706 14708 28
11767 14706 14709 28
11768 14706 14710 28
11769 14711 14712 28
11770 14711 14713 28
11771 14711 14714 28
11772 14711 14715 28
11773 14716 14717 28
11774 14716 14718 28
11775 14716 14719 28
11776 14716 14720 28
11777 14721 14722 28
11778 14721 14723 28
11779 14721 14724 28
11780 14721 14725 28
11781 14726 14727 28
11782 14726 14728 28
11783 14726 14729 28
11784 14726 14730 28
11785 14731 14732 28
11786 14731 14733 28
11787 14731 14734 28
11788 14731 14735 28
11789 14736 14737 28
11790 14736 14738 28
11791 14736 14739 28
11792 14736 14740 28
11793 14741 14742 28
11794 14741 14743 28
11795 14741 14744 28
11796 14741 14745 28
11797 14746 14747 28
11798 14746 14748 28
11799 14746 14749 28
11800 14746 14750 28
11801 14751 14752 28
11802 14751 14753 28
11803 14751 14754 28
11804 14751 14755 28
11805 14756 14757 28
11806 14756 14758 28
11807 14756 14759 28
11808 14756 14760 28
11809 14761 14762 28
11810 14761 14763 28
11811 14761 14764 28
11812 14761 14765 28
11813 14766 14767 28
11814 14766 14768 28
11815 14766 14769 28
11816 14766 14770 28
11817 14771 14772 28
11818 14771 14773 28
11819 14771 14774 28
11820 14771 14775 28
11821 14776 14777 28
11822 14776 14778 28
11823 14776 14779 28
11824 14776 14780 28
11825 14781 14782 28
11826 14781 14783 28
11827 14781 14784 28
11828 14781 14785 28
11829 14786 14787 28
11830 14786 14788 28
11831 14786 14789 28
11832 14786 14790 28
11833 14791 14792 28
11834 14791 14793 28
11835 14791 14794 28
11836 14791 14795 28
11837 14796 14797 28
11838 14796 14798 28
11839 14796 14799 28
11840 14796 14800 28
11841 14801 14802 28
11842 14801 14803 28
11843 14801 14804 28
11844 14801 14805 28
11845 14806 14807 28
11846 14806 14808 28
11847 14806 14809 28
11848 14806 14810 28
11849 14811 14812 28
11850 14811 14813 28
11851 14811 14814 28
11852 14811 14815 28
11853 14816 14817 28
11854 14816 14818 28
11855 14816 14819 28
11856 14816 14820 28
11857 14821 14822 28
11858 14821 14823 28
11859 14821 14824 28
11860 14821 14825 28
11861 14826 14827 28
11862 14826 14828 28
11863 14826 14829 28
11864 14826 14830 28
11865 14831 14832 28
11866 14831 14833 28
11867 14831 14834 28
11868 14831 14835 28
11869 14836 14837 28
11870 14836 14838 28
11871 14836 14839 28
11872 14836 14840 28
11873 14841 14842 28
11874 14841 14843 28
11875 14841 14844 28
11876 14841 14845 28
11877 14846 14847 28
11878 14846 14848 28
11879 14846 14849 28
11880 14846 14850 28
11881 14851 14852 28
11882 14851 14853 28
11883 14851 14854 28
11884 14851 14855 28
11885 14856 14857 28
11886 14856 14858 28
11887 14856 14859 28
11888 14856 14860 28
11889 14861 14862 28
11890 14861 14863 28
11891 14861 14864 28
11892 14861 14865 28
11893 14866 14867 28
11894 14866 14868 28
11895 14866 14869 28
11896 14866 14870 28
11897 14871 14872 28
11898 14871 14873 28
11899 14871 14874 28
11900 14871 14875 28
11901 14876 14877 28
11902 14876 14878 28
11903 14876 14879 28
11904 14876 14880 28
11905 14881 14882 28
11906 14881 14883 28
11907 14881 14884 28
11908 14881 14885 28
11909 14886 14887 28
11910 14886 14888 28
11911 14886 14889 28
11912 14886 14890 28
11913 14891 14892 28
11914 14891 14893 28
11915 14891 14894 28
11916 14891 14895 28
11917 14896 14897 28
11918 14896 14898 28
11919 14896 14899 28
11920 14896 14900 28
11921 14901 14902 28
11922 14901 14903 28
11923 14901 14904 28
11924 14901 14905 28
11925 14906 14907 28
11926 14906 14908 28
11927 14906 14909 28
11928 14906 14910 28
11929 14911 14912 28
11930 14911 14913 28
11931 14911 14914 28
11932 14911 14915 28
11933 14916 14917 28
11934 14916 14918 28
11935 14916 14919 28
11936 14916 14920 28
11937 14921 14922 28
11938 14921 14923 28
11939 14921 14924 28
11940 14921 14925 28
11941 14926 14927 28
11942 14926 14928 28
11943 14926 14929 28
11944 14926 14930 28
11945 14931 14932 28
11946 14931 14933 28
11947 14931 14934 28
11948 14931 14935 28
11949 14936 14937 28
11950 14936 14938 28
11951 14936 14939 28
11952 14936 14940 28
11953 14941 14942 28
11954 14941 14943 28
11955 14941 14944 28
11956 14941 14945 28
11957 14946 14947 28
11958 14946 14948 28
11959 14946 14949 28
11960 14946 14950 28
11961 14951 14952 28
11962 14951 14953 28
11963 14951 14954 28
11964 14951 14955 28
11965 14956 14957 28
11966 14956 14958 28
11967 14956 14959 28
11968 14956 14960 28
11969 14961 14962 28
11970 14961 14963 28
11971 14961 14964 28
11972 14961 14965 28
11973 14966 14967 28
11974 14966 14968 28
11975 14966 14969 28
11976 14966 14970 28
11977 14971 14972 28
11978 14971 14973 28
11979 14971 14974 28
11980 14971 14975 28
11981 14976 14977 28
11982 14976 14978 28
11983 14976 14979 28
11984 14976 14980 28
11985 14981 14982 28
11986 14981 14983 28
11987 14981 14984 28
11988 14981 14985 28
11989 14986 14987 28
11990 14986 14988 28
11991 14986 14989 28
11992 14986 14990 28
11993 14991 14992 28
11994 14991 14993 28
11995 14991 14994 28
11996 14991 14995 28
11997 14996 14997 28
11998 14996 14998 28
11999 14996 14999 28
12000 14996 15000 28
12001 15001 15002 28
12002 15001 15003 28
12003 15001 15004 28
12004 15001 15005 28
12005 15006 15007 28
12006 15006 15008 28
12007 15006 15009 28
12008 15006 15010 28
12009 15011 15012 28
12010 15011 15013 28
12011 15011 15014 28
12012 15011 15015 28
12013 15016 15017 28
12014 15016 15018 28
12015 15016 15019 28
12016 15016 15020 28
12017 15021 15022 28
12018 15021 15023 28
12019 15021 15024 28
12020 15021 15025 28
12021 15026 15027 28
12022 15026 15028 28
12023 15026 15029 28
12024 15026 15030 28
12025 15031 15032 28
12026 15031 15033 28
12027 15031 15034 28
12028 15031 15035 28
12029 15036 15037 28
12030 15036 15038 28
12031 15036 15039 28
12032 15036 15040 28
12033 15041 15042 28
12034 15041 15043 28
12035 15041 15044 28
12036 15041 15045 28
12037 15046 15047 28
12038 15046 15048 28
12039 15046 15049 28
12040 15046 15050 28
12041 15051 15052 28
12042 15051 15053 28
12043 15051 15054 28
12044 15051 15055 28
12045 15056 15057 28
12046 15056 15058 28
12047 15056 15059 28
12048 15056 15060 28
12049 15061 15062 28
12050 15061 15063 28
12051 15061 15064 28
12052 15061 15065 28
12053 15066 15067 28
12054 15066 15068 28
12055 15066 15069 28
12056 15066 15070 28
12057 15071 15072 28
12058 15071 15073 28
12059 15071 15074 28
12060 15071 15075 28
12061 15076 15077 28
12062 15076 15078 28
12063 15076 15079 28
12064 15076 15080 28
12065 15081 15082 28
12066 15081 15083 28
12067 15081 15084 28
12068 15081 15085 28
12069 15086 15087 28
12070 15086 15088 28
12071 15086 15089 28
12072 15086 15090 28
12073 15091 15092 28
12074 15091 15093 28
12075 15091 15094 28
12076 15091 15095 28
12077 15096 15097 28
12078 15096 15098 28
12079 15096 15099 28
12080 15096 15100 28
12081 15101 15102 28
12082 15101 15103 28
12083 15101 15104 28
12084 15101 15105 28
12085 15106 15107 28
12086 15106 15108 28
12087 15106 15109 28
12088 15106 15110 28
12089 15111 15112 28
12090 15111 15113 28
12091 15111 15114 28
12092 15111 15115 28
12093 15116 15117 28
12094 15116 15118 28
12095 15116 15119 28
12096 15116 15120 28
12097 15121 15122 28
12098 15121 15123 28
12099 15121 15124 28
12100 15121 15125 28
12101 15126 15127 28
12102 15126 15128 28
12103 15126 15129 28
12104 15126 15130 28
12105 15131 15132 28
12106 15131 15133 28
12107 15131 15134 28
12108 15131 15135 28
12109 15136 15137 28
12110 15136 15138 28
12111 15136 15139 28
12112 15136 15140 28
12113 15141 15142 28
12114 15141 15143 28
12115 15141 15144 28
12116 15141 15145 28
12117 15146 15147 28
12118 15146 15148 28
12119 15146 15149 28
12120 15146 15150 28
12121 15151 15152 28
12122 15151 15153 28
12123 15151 15154 28
12124 15151 15155 28
12125 15156 15157 28
12126 15156 15158 28
12127 15156 15159 28
12128 15156 15160 28
12129 15161 15162 28
12130 15161 15163 28
12131 15161 15164 28
12132 15161 15165 28
12133 15166 15167 28
12134 15166 15168 28
12135 15166 15169 28
12136 15166 15170 28
12137 15171 15172 28
12138 15171 15173 28
12139 15171 15174 28
12140 15171 15175 28
12141 15176 15177 28
12142 15176 15178 28
12143 15176 15179 28
12144 15176 15180 28
12145 15181 15182 28
12146 15181 15183 28
12147 15181 15184 28
12148 15181 15185 28
12149 15186 15187 28
12150 15186 15188 28
12151 15186 15189 28
12152 15186 15190 28
12153 15191 15192 28
12154 15191 15193 28
12155 15191 15194 28
12156 15191 15195 28
12157 15196 15197 28
12158 15196 15198 28
12159 15196 15199 28
12160 15196 15200 28
12161 15201 15202 28
12162 15201 15203 28
12163 15201 15204 28
12164 15201 15205 28
12165 15206 15207 28
12166 15206 15208 28
12167 15206 15209 28
12168 15206 15210 28
12169 15211 15212 28
12170 15211 15213 28
12171 15211 15214 28
12172 15211 15215 28
12173 15216 15217 28
12174 15216 15218 28
12175 15216 15219 28
12176 15216 15220 28
12177 15221 15222 28
12178 15221 15223 28
12179 15221 15224 28
12180 15221 15225 28
12181 15226 15227 28
12182 15226 15228 28
12183 15226 15229 28
12184 15226 15230 28
12185 15231 15232 28
12186 15231 15233 28
12187 15231 15234 28
12188 15231 15235 28
12189 15236 15237 28
12190 15236 15238 28
12191 15236 15239 28
12192 15236 15240 28
12193 15241 15242 28
12194 15241 15243 28
12195 15241 15244 28
12196 15241 15245 28
12197 15246 15247 28
12198 15246 15248 28
12199 15246 15249 28
12200 15246 15250 28
12201 15251 15252 28
12202 15251 15253 28
12203 15251 15254 28
12204 15251 15255 28
12205 15256 15257 28
12206 15256 15258 28
12207 15256 15259 28
12208 15256 15260 28
12209 15261 15262 28
12210 15261 15263 28
12211 15261 15264 28
12212 15261 15265 28
12213 15266 15267 28
12214 15266 15268 28
12215 15266 15269 28
12216 15266 15270 28
12217 15271 15272 28
12218 15271 15273 28
12219 15271 15274 28
12220 15271 15275 28
12221 15276 15277 28
12222 15276 15278 28
12223 15276 15279 28
12224 15276 15280 28
12225 15281 15282 28
12226 15281 15283 28
12227 15281 15284 28
12228 15281 15285 28
12229 15286 15287 28
12230 15286 15288 28
12231 15286 15289 28
12232 15286 15290 28
12233 15291 15292 28
12234 15291 15293 28
12235 15291 15294 28
12236 15291 15295 28
12237 15296 15297 28
12238 15296 15298 28
12239 15296 15299 28
12240 15296 15300 28
12241 15301 15302 28
12242 15301 15303 28
12243 15301 15304 28
12244 15301 15305 28
12245 15306 15307 28
12246 15306 15308 28
12247 15306 15309 28
12248 15306 15310 28
12249 15311 15312 28
12250 15311 15313 28
12251 15311 15314 28
12252 15311 15315 28
12253 15316 15317 28
12254 15316 15318 28
12255 15316 15319 28
12256 15316 15320 28
12257 15321 15322 28
12258 15321 15323 28
12259 15321 15324 28
12260 15321 15325 28
12261 15326 15327 28
12262 15326 15328 28
12263 15326 15329 28
12264 15326 15330 28
12265 15331 15332 28
12266 15331 15333 28
12267 15331 15334 28
12268 15331 15335 28
12269 15336 15337 28
12270 15336 15338 28
12271 15336 15339 28
12272 15336 15340 28
12273 15341 15342 28
12274 15341 15343 28
12275 15341 15344 28
12276 15341 15345 28
12277 15346 15347 28
12278 15346 15348 28
12279 15346 15349 28
12280 15346 15350 28
12281 15351 15352 28
12282 15351 15353 28
12283 15351 15354 28
12284 15351 15355 28
12285 15356 15357 28
12286 15356 15358 28
12287 15356 15359 28
12288 15356 15360 28
12289 15361 15362 28
12290 15361 15363 28
12291 15361 15364 28
12292 15361 15365 28
12293 15366 15367 28
12294 15366 15368 28
12295 15366 15369 28
12296 15366 15370 28
12297 15371 15372 28
12298 15371 15373 28
12299 15371 15374 28
12300 15371 15375 28
12301 15376 15377 28
12302 15376 15378 28
12303 15376 15379 28
12304 15376 15380 28
12305 15381 15382 28
12306 15381 15383 28
12307 15381 15384 28
12308 15381 15385 28
12309 15386 15387 28
12310 15386 15388 28
12311 15386 15389 28
12312 15386 15390 28
12313 15391 15392 28
12314 15391 15393 28
12315 15391 15394 28
12316 15391 15395 28
12317 15396 15397 28
12318 15396 15398 28
12319 15396 15399 28
12320 15396 15400 28
12321 15401 15402 28
12322 15401 15403 28
12323 15401 15404 28
12324 15401 15405 28
12325 15406 15407 28
12326 15406 15408 28
12327 15406 15409 28
12328 15406 15410 28
12329 15411 15412 28
12330 15411 15413 28
12331 15411 15414 28
12332 15411 15415 28
12333 15416 15417 28
12334 15416 15418 28
12335 15416 15419 28
12336 15416 15420 28
12337 15421 15422 28
12338 15421 15423 28
12339 15421 15424 28
12340 15421 15425 28
12341 15426 15427 28
12342 15426 15428 28
12343 15426 15429 28
12344 15426 15430 28
12345 15431 15432 28
12346 15431 15433 28
12347 15431 15434 28
12348 15431 15435 28
12349 15436 15437 28
12350 15436 15438 28
12351 15436 15439 28
12352 15436 15440 28
12353 15441 15442 28
12354 15441 15443 28
12355 15441 15444 28
12356 15441 15445 28
12357 15446 15447 28
12358 15446 15448 28
12359 15446 15449 28
12360 15446 15450 28
12361 15451 15452 28
12362 15451 15453 28
12363 15451 15454 28
12364 15451 15455 28
12365 15456 15457 28
12366 15456 15458 28
12367 15456 15459 28
12368 15456 15460 28
12369 15461 15462 28
12370 15461 15463 28
12371 15461 15464 28
12372 15461 15465 28
12373 15466 15467 28
12374 15466 15468 28
12375 15466 15469 28
12376 15466 15470 28
12377 15471 15472 28
12378 15471 15473 28
12379 15471 15474 28
12380 15471 15475 28
12381 15476 15477 28
12382 15476 15478 28
12383 15476 15479 28
12384 15476 15480 28
12385 15481 15482 28
12386 15481 15483 28
12387 15481 15484 28
12388 15481 15485 28
12389 15486 15487 28
12390 15486 15488 28
12391 15486 15489 28
12392 15486 15490 28
12393 15491 15492 28
12394 15491 15493 28
12395 15491 15494 28
12396 15491 15495 28
12397 15496 15497 28
12398 15496 15498 28
12399 15496 15499 28
12400 15496 15500 28
12401 15501 15502 28
12402 15501 15503 28
12403 15501 15504 28
12404 15501 15505 28
12405 15506 15507 28
12406 15506 15508 28
12407 15506 15509 28
12408 15506 15510 28
12409 15511 15512 28
12410 15511 15513 28
12411 15511 15514 28
12412 15511 15515 28
12413 15516 15517 28
12414 15516 15518 28
12415 15516 15519 28
12416 15516 15520 28
12417 15521 15522 28
12418 15521 15523 28
12419 15521 15524 28
12420 15521 15525 28
12421 15526 15527 28
12422 15526 15528 28
12423 15526 15529 28
12424 15526 15530 28
12425 15531 15532 28
12426 15531 15533 28
12427 15531 15534 28
12428 15531 15535 28
12429 15536 15537 28
12430 15536 15538 28
12431 15536 15539 28
12432 15536 15540 28
12433 15541 15542 28
12434 15541 15543 28
12435 15541 15544 28
12436 15541 15545 28
12437 15546 15547 28
12438 15546 15548 28
12439 15546 15549 28
12440 15546 15550 28
12441 15551 15552 28
12442 15551 15553 28
12443 15551 15554 28
12444 15551 15555 28
12445 15556 15557 28
12446 15556 15558 28
12447 15556 15559 28
12448 15556 15560 28
12449 15561 15562 28
12450 15561 15563 28
12451 15561 15564 28
12452 15561 15565 28
12453 15566 15567 28
12454 15566 15568 28
12455 15566 15569 28
12456 15566 15570 28
12457 15571 15572 28
12458 15571 15573 28
12459 15571 15574 28
12460 15571 15575 28
12461 15576 15577 28
12462 15576 15578 28
12463 15576 15579 28
12464 15576 15580 28
12465 15581 15582 28
12466 15581 15583 28
12467 15581 15584 28
12468 15581 15585 28
12469 15586 15587 28
12470 15586 15588 28
12471 15586 15589 28
12472 15586 15590 28
12473 15591 15592 28
12474 15591 15593 28
12475 15591 15594 28
12476 15591 15595 28
12477 15596 15597 28
12478 15596 15598 28
12479 15596 15599 28
12480 15596 15600 28
12481 15601 15602 28
12482 15601 15603 28
12483 15601 15604 28
12484 15601 15605 28
12485 15606 15607 28
12486 15606 15608 28
12487 15606 15609 28
12488 15606 15610 28
12489 15611 15612 28
12490 15611 15613 28
12491 15611 15614 28
12492 15611 15615 28
12493 15616 15617 28
12494 15616 15618 28
12495 15616 15619 28
12496 15616 15620 28
12497 15621 15622 28
12498 15621 15623 28
12499 15621 15624 28
12500 15621 15625 28
12501 15626 15627 28
12502 15626 15628 28
12503 15626 15629 28
12504 15626 15630 28
12505 15631 15632 28
12506 15631 15633 28
12507 15631 15634 28
12508 15631 15635 28
12509 15636 15637 28
12510 15636 15638 28
12511 15636 15639 28
12512 15636 15640 28
12513 15641 15642 28
12514 15641 15643 28
12515 15641 15644 28
12516 15641 15645 28
12517 15646 15647 28
12518 15646 15648 28
12519 15646 15649 28
12520 15646 15650 28
12521 15651 15652 28
12522 15651 15653 28
12523 15651 15654 28
12524 15651 15655 28
12525 15656 15657 28
12526 15656 15658 28
12527 15656 15659 28
12528 15656 15660 28
12529 15661 15662 28
12530 15661 15663 28
12531 15661 15664 28
12532 15661 15665 28
12533 15666 15667 28
12534 15666 15668 28
12535 15666 15669 28
12536 15666 15670 28
12537 15671 15672 28
12538 15671 15673 28
12539 15671 15674 28
12540 15671 15675 28
12541 15676 15677 28
12542 15676 15678 28
12543 15676 15679 28
12544 15676 15680 28
12545 15681 15682 28
12546 15681 15683 28
12547 15681 15684 28
12548 15681 15685 28
12549 15686 15687 28
12550 15686 15688 28
12551 15686 15689 28
12552 15686 15690 28
12553 15691 15692 28
12554 15691 15693 28
12555 15691 15694 28
12556 15691 15695 28
12557 15696 15697 28
12558 15696 15698 28
12559 15696 15699 28
12560 15696 15700 28
12561 15701 15702 28
12562 15701 15703 28
12563 15701 15704 28
12564 15701 15705 28
12565 15706 15707 28
12566 15706 15708 28
12567 15706 15709 28
12568 15706 15710 28
12569 15711 15712 28
12570 15711 15713 28
12571 15711 15714 28
12572 15711 15715 28
12573 15716 15717 28
12574 15716 15718 28
12575 15716 15719 28
12576 15716 15720 28
12577 15721 15722 28
12578 15721 15723 28
12579 15721 15724 28
12580 15721 15725 28
12581 15726 15727 28
12582 15726 15728 28
12583 15726 15729 28
12584 15726 15730 28
12585 15731 15732 28
12586 15731 15733 28
12587 15731 15734 28
12588 15731 15735 28
12589 15736 15737 28
12590 15736 15738 28
12591 15736 15739 28
12592 15736 15740 28
12593 15741 15742 28
12594 15741 15743 28
12595 15741 15744 28
12596 15741 15745 28
12597 15746 15747 28
12598 15746 15748 28
12599 15746 15749 28
12600 15746 15750 28
12601 15751 15752 28
12602 15751 15753 28
12603 15751 15754 28
12604 15751 15755 28
12605 15756 15757 28
12606 15756 15758 28
12607 15756 15759 28
12608 15756 15760 28
12609 15761 15762 28
12610 15761 15763 28
12611 15761 15764 28
12612 15761 15765 28
12613 15766 15767 28
12614 15766 15768 28
12615 15766 15769 28
12616 15766 15770 28
12617 15771 15772 28
12618 15771 15773 28
12619 15771 15774 28
12620 15771 15775 28
12621 15776 15777 28
12622 15776 15778 28
12623 15776 15779 28
12624 15776 15780 28
12625 15781 15782 28
12626 15781 15783 28
12627 15781 15784 28
12628 15781 15785 28
12629 15786 15787 28
12630 15786 15788 28
12631 15786 15789 28
12632 15786 15790 28
12633 15791 15792 28
12634 15791 15793 28
12635 15791 15794 28
12636 15791 15795 28
12637 15796 15797 28
12638 15796 15798 28
12639 15796 15799 28
12640 15796 15800 28
12641 15801 15802 28
12642 15801 15803 28
12643 15801 15804 28
12644 15801 15805 28
12645 15806 15807 28
12646 15806 15808 28
12647 15806 15809 28
12648 15806 15810 28
12649 15811 15812 28
12650 15811 15813 28
12651 15811 15814 28
12652 15811 15815 28
12653 15816 15817 28
12654 15816 15818 28
12655 15816 15819 28
12656 15816 15820 28
12657 15821 15822 28
12658 15821 15823 28
12659 15821 15824 28
12660 15821 15825 28
12661 15826 15827 28
12662 15826 15828 28
12663 15826 15829 28
12664 15826 15830 28
12665 15831 15832 28
12666 15831 15833 28
12667 15831 15834 28
12668 15831 15835 28
12669 15836 15837 28
12670 15836 15838 28
12671 15836 15839 28
12672 15836 15840 28
12673 15841 15842 28
12674 15841 15843 28
12675 15841 15844 28
12676 15841 15845 28
12677 15846 15847 28
12678 15846 15848 28
12679 15846 15849 28
12680 15846 15850 28
12681 15851 15852 28
12682 15851 15853 28
12683 15851 15854 28
12684 15851 15855 28
12685 15856 15857 28
12686 15856 15858 28
12687 15856 15859 28
12688 15856 15860 28
12689 15861 15862 28
12690 15861 15863 28
12691 15861 15864 28
12692 15861 15865 28
12693 15866 15867 28
12694 15866 15868 28
12695 15866 15869 28
12696 15866 15870 28
12697 15871 15872 28
12698 15871 15873 28
12699 15871 15874 28
12700 15871 15875 28
12701 15876 15877 28
12702 15876 15878 28
12703 15876 15879 28
12704 15876 15880 28
12705 15881 15882 28
12706 15881 15883 28
12707 15881 15884 28
12708 15881 15885 28
12709 15886 15887 28
12710 15886 15888 28
12711 15886 15889 28
12712 15886 15890 28
12713 15891 15892 28
12714 15891 15893 28
12715 15891 15894 28
12716 15891 15895 28
12717 15896 15897 28
12718 15896 15898 28
12719 15896 15899 28
12720 15896 15900 28
12721 15901 15902 28
12722 15901 15903 28
12723 15901 15904 28
12724 15901 15905 28
12725 15906 15907 28
12726 15906 15908 28
12727 15906 15909 28
12728 15906 15910 28
12729 15911 15912 28
12730 15911 15913 28
12731 15911 15914 28
12732 15911 15915 28
12733 15916 15917 28
12734 15916 15918 28
12735 15916 15919 28
12736 15916 15920 28
12737 15921 15922 28
12738 15921 15923 28
12739 15921 15924 28
12740 15921 15925 28
12741 15926 15927 28
12742 15926 15928 28
12743 15926 15929 28
12744 15926 15930 28
12745 15931 15932 28
12746 15931 15933 28
12747 15931 15934 28
12748 15931 15935 28
12749 15936 15937 28
12750 15936 15938 28
12751 15936 15939 28
12752 15936 15940 28
12753 15941 15942 28
12754 15941 15943 28
12755 15941 15944 28
12756 15941 15945 28
12757 15946 15947 28
12758 15946 15948 28
12759 15946 15949 28
12760 15946 15950 28
12761 15951 15952 28
12762 15951 15953 28
12763 15951 15954 28
12764 15951 15955 28
12765 15956 15957 28
12766 15956 15958 28
12767 15956 15959 28
12768 15956 15960 28
12769 15961 15962 28
12770 15961 15963 28
12771 15961 15964 28
12772 15961 15965 28
12773 15966 15967 28
12774 15966 15968 28
12775 15966 15969 28
12776 15966 15970 28
12777 15971 15972 28
12778 15971 15973 28
12779 15971 15974 28
12780 15971 15975 28
12781 15976 15977 28
12782 15976 15978 28
12783 15976 15979 28
12784 15976 15980 28
12785 15981 15982 28
12786 15981 15983 28
12787 15981 15984 28
12788 15981 15985 28
12789 15986 15987 28
12790 15986 15988 28
12791 15986 15989 28
12792 15986 15990 28
12793 15991 15992 28
12794 15991 15993 28
12795 15991 15994 28
12796 15991 15995 28
12797 15996 15997 28
12798 15996 15998 28
12799 15996 15999 28
12800 15996 16000 28
12801 16001 16002 28
12802 16001 16003 28
12803 16001 16004 28
12804 16001 16005 28
12805 16006 16007 28
12806 16006 16008 28
12807 16006 16009 28
12808 16006 16010 28
12809 16011 16012 28
12810 16011 16013 28
12811 16011 16014 28
12812 16011 16015 28
12813 16016 16017 28
12814 16016 16018 28
12815 16016 16019 28
12816 16016 16020 28
12817 16021 16022 28
12818 16021 16023 28
12819 16021 16024 28
12820 16021 16025 28
12821 16026 16027 28
12822 16026 16028 28
12823 16026 16029 28
12824 16026 16030 28
12825 16031 16032 28
12826 16031 16033 28
12827 16031 16034 28
12828 16031 16035 28
12829 16036 16037 28
12830 16036 16038 28
12831 16036 16039 28
12832 16036 16040 28
12833 16041 16042 28
12834 16041 16043 28
12835 16041 16044 28
12836 16041 16045 28
12837 16046 16047 28
12838 16046 16048 28
12839 16046 16049 28
12840 16046 16050 28
12841 16051 16052 28
12842 16051 16053 28
12843 16051 16054 28
12844 16051 16055 28
12845 16056 16057 28
12846 16056 16058 28
12847 16056 16059 28
12848 16056 16060 28
12849 16061 16062 28
12850 16061 16063 28
12851 16061 16064 28
12852 16061 16065 28
12853 16066 16067 28
12854 16066 16068 28
12855 16066 16069 28
12856 16066 16070 28
12857 16071 16072 28
12858 16071 16073 28
12859 16071 16074 28
12860 16071 16075 28
12861 16076 16077 28
12862 16076 16078 28
12863 16076 16079 28
12864 16076 16080 28
12865 16081 16082 28
12866 16081 16083 28
12867 16081 16084 28
12868 16081 16085 28
12869 16086 16087 28
12870 16086 16088 28
12871 16086 16089 28
12872 16086 16090 28
12873 16091 16092 28
12874 16091 16093 28
12875 16091 16094 28
12876 16091 16095 28
12877 16096 16097 28
12878 16096 16098 28
12879 16096 16099 28
12880 16096 16100 28
12881 16101 16102 28
12882 16101 16103 28
12883 16101 16104 28
12884 16101 16105 28
12885 16106 16107 28
12886 16106 16108 28
12887 16106 16109 28
12888 16106 16110 28
12889 16111 16112 28
12890 16111 16113 28
12891 16111 16114 28
12892 16111 16115 28
12893 16116 16117 28
12894 16116 16118 28
12895 16116 16119 28
12896 16116 16120 28
12897 16121 16122 28
12898 16121 16123 28
12899 16121 16124 28
12900 16121 16125 28
12901 16126 16127 28
12902 16126 16128 28
12903 16126 16129 28
12904 16126 16130 28
12905 16131 16132 28
12906 16131 16133 28
12907 16131 16134 28
12908 16131 16135 28
12909 16136 16137 28
12910 16136 16138 28
12911 16136 16139 28
12912 16136 16140 28
12913 16141 16142 28
12914 16141 16143 28
12915 16141 16144 28
12916 16141 16145 28
12917 16146 16147 28
12918 16146 16148 28
12919 16146 16149 28
12920 16146 16150 28
12921 16151 16152 28
12922 16151 16153 28
12923 16151 16154 28
12924 16151 16155 28
12925 16156 16157 28
12926 16156 16158 28
12927 16156 16159 28
12928 16156 16160 28
12929 16161 16162 28
12930 16161 16163 28
12931 16161 16164 28
12932 16161 16165 28
12933 16166 16167 28
12934 16166 16168 28
12935 16166 16169 28
12936 16166 16170 28
12937 16171 16172 28
12938 16171 16173 28
12939 16171 16174 28
12940 16171 16175 28
12941 16176 16177 28
12942 16176 16178 28
12943 16176 16179 28
12944 16176 16180 28
12945 16181 16182 28
12946 16181 16183 28
12947 16181 16184 28
12948 16181 16185 28
12949 16186 16187 28
12950 16186 16188 28
12951 16186 16189 28
12952 16186 16190 28
12953 16191 16192 28
12954 16191 16193 28
12955 16191 16194 28
12956 16191 16195 28
12957 16196 16197 28
12958 16196 16198 28
12959 16196 16199 28
12960 16196 16200 28
12961 16201 16202 28
12962 16201 16203 28
12963 16201 16204 28
12964 16201 16205 28
12965 16206 16207 28
12966 16206 16208 28
12967 16206 16209 28
12968 16206 16210 28
12969 16211 16212 28
12970 16211 16213 28
12971 16211 16214 28
12972 16211 16215 28
12973 16216 16217 28
12974 16216 16218 28
12975 16216 16219 28
12976 16216 16220 28
12977 16221 16222 28
12978 16221 16223 28
12979 16221 16224 28
12980 16221 16225 28
12981 16226 16227 28
12982 16226 16228 28
12983 16226 16229 28
12984 16226 16230 28
12985 16231 16232 28
12986 16231 16233 28
12987 16231 16234 28
12988 16231 16235 28
12989 16236 16237 28
12990 16236 16238 28
12991 16236 16239 28
12992 16236 16240 28
12993 16241 16242 28
12994 16241 16243 28
12995 16241 16244 28
12996 16241 16245 28
12997 16246 16247 28
12998 16246 16248 28
12999 16246 16249 28
13000 16246 16250 28
13001 16251 16252 28
13002 16251 16253 28
13003 16251 16254 28
13004 16251 16255 28
13005 16256 16257 28
13006 16256 16258 28
13007 16256 16259 28
13008 16256 16260 28
13009 16261 16262 28
13010 16261 16263 28
13011 16261 16264 28
13012 16261 16265 28
13013 16266 16267 28
13014 16266 16268 28
13015 16266 16269 28
13016 16266 16270 28
13017 16271 16272 28
13018 16271 16273 28
13019 16271 16274 28
13020 16271 16275 28
13021 16276 16277 28
13022 16276 16278 28
13023 16276 16279 28
13024 16276 16280 28
13025 16281 16282 28
13026 16281 16283 28
13027 16281 16284 28
13028 16281 16285 28
13029 16286 16287 28
13030 16286 16288 28
13031 16286 16289 28
13032 16286 16290 28
13033 16291 16292 28
13034 16291 16293 28
13035 16291 16294 28
13036 16291 16295 28
13037 16296 16297 28
13038 16296 16298 28
13039 16296 16299 28
13040 16296 16300 28
13041 16301 16302 28
13042 16301 16303 28
13043 16301 16304 28
13044 16301 16305 28
13045 16306 16307 28
13046 16306 16308 28
13047 16306 16309 28
13048 16306 16310 28
13049 16311 16312 28
13050 16311 16313 28
13051 16311 16314 28
13052 16311 16315 28
13053 16316 16317 28
13054 16316 16318 28
13055 16316 16319 28
13056 16316 16320 28
13057 16321 16322 28
13058 16321 16323 28
13059 16321 16324 28
13060 16321 16325 28
13061 16326 16327 28
13062 16326 16328 28
13063 16326 16329 28
13064 16326 16330 28
13065 16331 16332 28
13066 16331 16333 28
13067 16331 16334 28
13068 16331 16335 28
13069 16336 16337 28
13070 16336 16338 28
13071 16336 16339 28
13072 16336 16340 28
13073 16341 16342 28
13074 16341 16343 28
13075 16341 16344 28
13076 16341 16345 28
13077 16346 16347 28
13078 16346 16348 28
13079 16346 16349 28
13080 16346 16350 28
13081 16351 16352 28
13082 16351 16353 28
13083 16351 16354 28
13084 16351 16355 28
13085 16356 16357 28
13086 16356 16358 28
13087 16356 16359 28
13088 16356 16360 28
13089 16361 16362 28
13090 16361 16363 28
13091 16361 16364 28
13092 16361 16365 28
13093 16366 16367 28
13094 16366 16368 28
13095 16366 16369 28
13096 16366 16370 28
13097 16371 16372 28
13098 16371 16373 28
13099 16371 16374 28
13100 16371 16375 28
13101 16376 16377 28
13102 16376 16378 28
13103 16376 16379 28
13104 16376 16380 28
13105 16381 16382 28
13106 16381 16383 28
13107 16381 16384 28
13108 16381 16385 28
13109 16386 16387 28
13110 16386 16388 28
13111 16386 16389 28
13112 16386 16390 28
13113 16391 16392 28
13114 16391 16393 28
13115 16391 16394 28
13116 16391 16395 28
13117 16396 16397 28
13118 16396 16398 28
13119 16396 16399 28
13120 16396 16400 28
13121 16401 16402 28
13122 16401 16403 28
13123 16401 16404 28
13124 16401 16405 28
13125 16406 16407 28
13126 16406 16408 28
13127 16406 16409 28
13128 16406 16410 28
13129 16411 16412 28
13130 16411 16413 28
13131 16411 16414 28
13132 16411 16415 28
13133 16416 16417 28
13134 16416 16418 28
13135 16416 16419 28
13136 16416 16420 28
13137 16421 16422 28
13138 16421 16423 28
13139 16421 16424 28
13140 16421 16425 28
13141 16426 16427 28
13142 16426 16428 28
13143 16426 16429 28
13144 16426 16430 28
13145 16431 16432 28
13146 16431 16433 28
13147 16431 16434 28
13148 16431 16435 28
13149 16436 16437 28
13150 16436 16438 28
13151 16436 16439 28
13152 16436 16440 28
13153 16441 16442 28
13154 16441 16443 28
13155 16441 16444 28
13156 16441 16445 28
13157 16446 16447 28
13158 16446 16448 28
13159 16446 16449 28
13160 16446 16450 28
13161 16451 16452 28
13162 16451 16453 28
13163 16451 16454 28
13164 16451 16455 28
13165 16456 16457 28
13166 16456 16458 28
13167 16456 16459 28
13168 16456 16460 28
13169 16461 16462 28
13170 16461 16463 28
13171 16461 16464 28
13172 16461 16465 28
13173 16466 16467 28
13174 16466 16468 28
13175 16466 16469 28
13176 16466 16470 28
13177 16471 16472 28
13178 16471 16473 28
13179 16471 16474 28
13180 16471 16475 28
13181 16476 16477 28
13182 16476 16478 28
13183 16476 16479 28
13184 16476 16480 28
13185 16481 16482 28
13186 16481 16483 28
13187 16481 16484 28
13188 16481 16485 28
13189 16486 16487 28
13190 16486 16488 28
13191 16486 16489 28
13192 16486 16490 28
13193 16491 16492 28
13194 16491 16493 28
13195 16491 16494 28
13196 16491 16495 28
13197 16496 16497 28
13198 16496 16498 28
13199 16496 16499 28
13200 16496 16500 28
13201 16501 16502 28
13202 16501 16503 28
13203 16501 16504 28
13204 16501 16505 28
13205 16506 16507 28
13206 16506 16508 28
13207 16506 16509 28
13208 16506 16510 28
13209 16511 16512 28
13210 16511 16513 28
13211 16511 16514 28
13212 16511 16515 28
13213 16516 16517 28
13214 16516 16518 28
13215 16516 16519 28
13216 16516 16520 28
13217 16521 16522 28
13218 16521 16523 28
13219 16521 16524 28
13220 16521 16525 28
13221 16526 16527 28
13222 16526 16528 28
13223 16526 16529 28
13224 16526 16530 28
13225 16531 16532 28
13226 16531 16533 28
13227 16531 16534 28
13228 16531 16535 28
13229 16536 16537 28
13230 16536 16538 28
13231 16536 16539 28
13232 16536 16540 28
13233 16541 16542 28
13234 16541 16543 28
13235 16541 16544 28
13236 16541 16545 28
13237 16546 16547 28
13238 16546 16548 28
13239 16546 16549 28
13240 16546 16550 28
13241 16551 16552 28
13242 16551 16553 28
13243 16551 16554 28
13244 16551 16555 28
13245 16556 16557 28
13246 16556 16558 28
13247 16556 16559 28
13248 16556 16560 28
13249 16561 16562 28
13250 16561 16563 28
13251 16561 16564 28
13252 16561 16565 28
13253 16566 16567 28
13254 16566 16568 28
13255 16566 16569 28
13256 16566 16570 28
13257 16571 16572 28
13258 16571 16573 28
13259 16571 16574 28
13260 16571 16575 28
13261 16576 16577 28
13262 16576 16578 28
13263 16576 16579 28
13264 16576 16580 28
13265 16581 16582 28
13266 16581 16583 28
13267 16581 16584 28
13268 16581 16585 28
13269 16586 16587 28
13270 16586 16588 28
13271 16586 16589 28
13272 16586 16590 28
13273 16591 16592 28
13274 16591 16593 28
13275 16591 16594 28
13276 16591 16595 28
13277 16596 16597 28
13278 16596 16598 28
13279 16596 16599 28
13280 16596 16600 28
13281 16601 16602 28
13282 16601 16603 28
13283 16601 16604 28
13284 16601 16605 28
13285 16606 16607 28
13286 16606 16608 28
13287 16606 16609 28
13288 16606 16610 28
13289 16611 16612 28
13290 16611 16613 28
13291 16611 16614 28
13292 16611 16615 28
13293 16616 16617 28
13294 16616 16618 28
13295 16616 16619 28
13296 16616 16620 28
13297 16621 16622 28
13298 16621 16623 28
13299 16621 16624 28
13300 16621 16625 28
13301 16626 16627 28
13302 16626 16628 28
13303 16626 16629 28
13304 16626 16630 28
13305 16631 16632 28
13306 16631 16633 28
13307 16631 16634 28
13308 16631 16635 28
13309 16636 16637 28
13310 16636 16638 28
13311 16636 16639 28
13312 16636 16640 28
13313 16641 16642 28
13314 16641 16643 28
13315 16641 16644 28
13316 16641 16645 28
13317 16646 16647 28
13318 16646 16648 28
13319 16646 16649 28
13320 16646 16650 28
13321 16651 16652 28
13322 16651 16653 28
13323 16651 16654 28
13324 16651 16655 28
13325 16656 16657 28
13326 16656 16658 28
13327 16656 16659 28
13328 16656 16660 28
13329 16661 16662 28
13330 16661 16663 28
13331 16661 16664 28
13332 16661 16665 28
13333 16666 16667 28
13334 16666 16668 28
13335 16666 16669 28
13336 16666 16670 28
13337 16671 16672 28
13338 16671 16673 28
13339 16671 16674 28
13340 16671 16675 28
13341 16676 16677 28
13342 16676 16678 28
13343 16676 16679 28
13344 16676 16680 28
13345 16681 16682 28
13346 16681 16683 28
13347 16681 16684 28
13348 16681 16685 28
13349 16686 16687 28
13350 16686 16688 28
13351 16686 16689 28
13352 16686 16690 28
13353 16691 16692 28
13354 16691 16693 28
13355 16691 16694 28
13356 16691 16695 28
13357 16696 16697 28
13358 16696 16698 28
13359 16696 16699 28
13360 16696 16700 28
13361 16701 16702 28
13362 16701 16703 28
13363 16701 16704 28
13364 16701 16705 28
13365 16706 16707 28
13366 16706 16708 28
13367 16706 16709 28
13368 16706 16710 28
13369 16711 16712 28
13370 16711 16713 28
13371 16711 16714 28
13372 16711 16715 28
13373 16716 16717 28
13374 16716 16718 28
13375 16716 16719 28
13376 16716 16720 28
13377 16721 16722 28
13378 16721 16723 28
13379 16721 16724 28
13380 16721 16725 28
13381 16726 16727 28
13382 16726 16728 28
13383 16726 16729 28
13384 16726 16730 28
13385 16731 16732 28
13386 16731 16733 28
13387 16731 16734 28
13388 16731 16735 28
13389 16736 16737 28
13390 16736 16738 28
13391 16736 16739 28
13392 16736 16740 28
13393 16741 16742 28
13394 16741 16743 28
13395 16741 16744 28
13396 16741 16745 28
13397 16746 16747 28
13398 16746 16748 28
13399 16746 16749 28
13400 16746 16750 28
13401 16751 16752 28
13402 16751 16753 28
13403 16751 16754 28
13404 16751 16755 28
13405 16756 16757 28
13406 16756 16758 28
13407 16756 16759 28
13408 16756 16760 28
13409 16761 16762 28
13410 16761 16763 28
13411 16761 16764 28
13412 16761 16765 28
13413 16766 16767 28
13414 16766 16768 28
13415 16766 16769 28
13416 16766 16770 28
13417 16771 16772 28
13418 16771 16773 28
13419 16771 16774 28
13420 16771 16775 28
13421 16776 16777 28
13422 16776 16778 28
13423 16776 16779 28
13424 16776 16780 28
13425 16781 16782 28
13426 16781 16783 28
13427 16781 16784 28
13428 16781 16785 28
13429 16786 16787 28
13430 16786 16788 28
13431 16786 16789 28
13432 16786 16790 28
13433 16791 16792 28
13434 16791 16793 28
13435 16791 16794 28
13436 16791 16795 28
13437 16796 16797 28
13438 16796 16798 28
13439 16796 16799 28
13440 16796 16800 28
13441 16801 16802 28
13442 16801 16803 28
13443 16801 16804 28
13444 16801 16805 28
13445 16806 16807 28
13446 16806 16808 28
13447 16806 16809 28
13448 16806 16810 28
13449 16811 16812 28
13450 16811 16813 28
13451 16811 16814 28
13452 16811 16815 28
13453 16816 16817 28
13454 16816 16818 28
13455 16816 16819 28
13456 16816 16820 28
13457 16821 16822 28
13458 16821 16823 28
13459 16821 16824 28
13460 16821 16825 28
13461 16826 16827 28
13462 16826 16828 28
13463 16826 16829 28
13464 16826 16830 28
13465 16831 16832 28
13466 16831 16833 28
13467 16831 16834 28
13468 16831 16835 28
13469 16836 16837 28
13470 16836 16838 28
13471 16836 16839 28
13472 16836 16840 28
13473 16841 16842 28
13474 16841 16843 28
13475 16841 16844 28
13476 16841 16845 28
13477 16846 16847 28
13478 16846 16848 28
13479 16846 16849 28
13480 16846 16850 28
13481 16851 16852 28
13482 16851 16853 28
13483 16851 16854 28
13484 16851 16855 28
13485 16856 16857 28
13486 16856 16858 28
13487 16856 16859 28
13488 16856 16860 28
13489 16861 16862 28
13490 16861 16863 28
13491 16861 16864 28
13492 16861 16865 28
13493 16866 16867 28
13494 16866 16868 28
13495 16866 16869 28
13496 16866 16870 28
13497 16871 16872 28
13498 16871 16873 28
13499 16871 16874 28
13500 16871 16875 28
13501 16876 16877 28
13502 16876 16878 28
13503 16876 16879 28
13504 16876 16880 28
13505 16881 16882 28
13506 16881 16883 28
13507 16881 16884 28
13508 16881 16885 28
13509 16886 16887 28
13510 16886 16888 28
13511 16886 16889 28
13512 16886 16890 28
13513 16891 16892 28
13514 16891 16893 28
13515 16891 16894 28
13516 16891 16895 28
13517 16896 16897 28
13518 16896 16898 28
13519 16896 16899 28
13520 16896 16900 28
13521 16901 16902 28
13522 16901 16903 28
13523 16901 16904 28
13524 16901 16905 28
13525 16906 16907 28
13526 16906 16908 28
13527 16906 16909 28
13528 16906 16910 28
13529 16911 16912 28
13530 16911 16913 28
13531 16911 16914 28
13532 16911 16915 28
13533 16916 16917 28
13534 16916 16918 28
13535 16916 16919 28
13536 16916 16920 28
13537 16921 16922 28
13538 16921 16923 28
13539 16921 16924 28
13540 16921 16925 28
13541 16926 16927 28
13542 16926 16928 28
13543 16926 16929 28
13544 16926 16930 28
13545 16931 16932 28
13546 16931 16933 28
13547 16931 16934 28
13548 16931 16935 28
13549 16936 16937 28
13550 16936 16938 28
13551 16936 16939 28
13552 16936 16940 28
13553 16941 16942 28
13554 16941 16943 28
13555 16941 16944 28
13556 16941 16945 28
13557 16946 16947 28
13558 16946 16948 28
13559 16946 16949 28
13560 16946 16950 28
13561 16951 16952 28
13562 16951 16953 28
13563 16951 16954 28
13564 16951 16955 28
13565 16956 16957 28
13566 16956 16958 28
13567 16956 16959 28
13568 16956 16960 28
13569 16961 16962 28
13570 16961 16963 28
13571 16961 16964 28
13572 16961 16965 28
13573 16966 16967 28
13574 16966 16968 28
13575 16966 16969 28
13576 16966 16970 28
13577 16971 16972 28
13578 16971 16973 28
13579 16971 16974 28
13580 16971 16975 28
13581 16976 16977 28
13582 16976 16978 28
13583 16976 16979 28
13584 16976 16980 28
13585 16981 16982 28
13586 16981 16983 28
13587 16981 16984 28
13588 16981 16985 28
13589 16986 16987 28
13590 16986 16988 28
13591 16986 16989 28
13592 16986 16990 28
13593 16991 16992 28
13594 16991 16993 28
13595 16991 16994 28
13596 16991 16995 28
13597 16996 16997 28
13598 16996 16998 28
13599 16996 16999 28
13600 16996 17000 28
13601 17001 17002 28
13602 17001 17003 28
13603 17001 17004 28
13604 17001 17005 28
13605 17006 17007 28
13606 17006 17008 28
13607 17006 17009 28
13608 17006 17010 28
13609 17011 17012 28
13610 17011 17013 28
13611 17011 17014 28
13612 17011 17015 28
13613 17016 17017 28
13614 17016 17018 28
13615 17016 17019 28
13616 17016 17020 28
13617 17021 17022 28
13618 17021 17023 28
13619 17021 17024 28
13620 17021 17025 28
13621 17026 17027 28
13622 17026 17028 28
13623 17026 17029 28
13624 17026 17030 28
13625 17031 17032 28
13626 17031 17033 28
13627 17031 17034 28
13628 17031 17035 28
13629 17036 17037 28
13630 17036 17038 28
13631 17036 17039 28
13632 17036 17040 28
13633 17041 17042 28
13634 17041 17043 28
13635 17041 17044 28
13636 17041 17045 28
13637 17046 17047 28
13638 17046 17048 28
13639 17046 17049 28
13640 17046 17050 28
13641 17051 17052 28
13642 17051 17053 28
13643 17051 17054 28
13644 17051 17055 28
13645 17056 17057 28
13646 17056 17058 28
13647 17056 17059 28
13648 17056 17060 28
13649 17061 17062 28
13650 17061 17063 28
13651 17061 17064 28
13652 17061 17065 28
13653 17066 17067 28
13654 17066 17068 28
13655 17066 17069 28
13656 17066 17070 28
13657 17071 17072 28
13658 17071 17073 28
13659 17071 17074 28
13660 17071 17075 28
13661 17076 17077 28
13662 17076 17078 28
13663 17076 17079 28
13664 17076 17080 28
13665 17081 17082 28
13666 17081 17083 28
13667 17081 17084 28
13668 17081 17085 28
13669 17086 17087 28
13670 17086 17088 28
13671 17086 17089 28
13672 17086 17090 28
13673 17091 17092 28
13674 17091 17093 28
13675 17091 17094 28
13676 17091 17095 28
13677 17096 17097 28
13678 17096 17098 28
13679 17096 17099 28
13680 17096 17100 28
13681 17101 17102 28
13682 17101 17103 28
13683 17101 17104 28
13684 17101 17105 28
13685 17106 17107 28
13686 17106 17108 28
13687 17106 17109 28
13688 17106 17110 28
13689 17111 17112 28
13690 17111 17113 28
13691 17111 17114 28
13692 17111 17115 28
13693 17116 17117 28
13694 17116 17118 28
13695 17116 17119 28
13696 17116 17120 28
13697 17121 17122 28
13698 17121 17123 28
13699 17121 17124 28
13700 17121 17125 28
13701 17126 17127 28
13702 17126 17128 28
13703 17126 17129 28
13704 17126 17130 28
13705 17131 17132 28
13706 17131 17133 28
13707 17131 17134 28
13708 17131 17135 28
13709 17136 17137 28
13710 17136 17138 28
13711 17136 17139 28
13712 17136 17140 28
13713 17141 17142 28
13714 17141 17143 28
13715 17141 17144 28
13716 17141 17145 28
13717 17146 17147 28
13718 17146 17148 28
13719 17146 17149 28
13720 17146 17150 28
13721 17151 17152 28
13722 17151 17153 28
13723 17151 17154 28
13724 17151 17155 28
13725 17156 17157 28
13726 17156 17158 28
13727 17156 17159 28
13728 17156 17160 28
13729 17161 17162 28
13730 17161 17163 28
13731 17161 17164 28
13732 17161 17165 28
13733 17166 17167 28
13734 17166 17168 28
13735 17166 17169 28
13736 17166 17170 28
13737 17171 17172 28
13738 17171 17173 28
13739 17171 17174 28
13740 17171 17175 28
13741 17176 17177 28
13742 17176 17178 28
13743 17176 17179 28
13744 17176 17180 28
13745 17181 17182 28
13746 17181 17183 28
13747 17181 17184 28
13748 17181 17185 28
13749 17186 17187 28
13750 17186 17188 28
13751 17186 17189 28
13752 17186 17190 28
13753 17191 17192 28
13754 17191 17193 28
13755 17191 17194 28
13756 17191 17195 28
13757 17196 17197 28
13758 17196 17198 28
13759 17196 17199 28
13760 17196 17200 28
13761 17201 17202 28
13762 17201 17203 28
13763 17201 17204 28
13764 17201 17205 28
13765 17206 17207 28
13766 17206 17208 28
13767 17206 17209 28
13768 17206 17210 28
13769 17211 17212 28
13770 17211 17213 28
13771 17211 17214 28
13772 17211 17215 28
13773 17216 17217 28
13774 17216 17218 28
13775 17216 17219 28
13776 17216 17220 28
13777 17221 17222 28
13778 17221 17223 28
13779 17221 17224 28
13780 17221 17225 28
13781 17226 17227 28
13782 17226 17228 28
13783 17226 17229 28
13784 17226 17230 28
13785 17231 17232 28
13786 17231 17233 28
13787 17231 17234 28
13788 17231 17235 28
13789 17236 17237 28
13790 17236 17238 28
13791 17236 17239 28
13792 17236 17240 28
13793 17241 17242 28
13794 17241 17243 28
13795 17241 17244 28
13796 17241 17245 28
13797 17246 17247 28
13798 17246 17248 28
13799 17246 17249 28
13800 17246 17250 28
13801 17251 17252 28
13802 17251 17253 28
13803 17251 17254 28
13804 17251 17255 28
13805 17256 17257 28
13806 17256 17258 28
13807 17256 17259 28
13808 17256 17260 28
13809 17261 17262 28
13810 17261 17263 28
13811 17261 17264 28
13812 17261 17265 28
13813 17266 17267 28
13814 17266 17268 28
13815 17266 17269 28
13816 17266 17270 28
13817 17271 17272 28
13818 17271 17273 28
13819 17271 17274 28
13820 17271 17275 28
13821 17276 17277 28
13822 17276 17278 28
13823 17276 17279 28
13824 17276 17280 28
13825 17281 17282 28
13826 17281 17283 28
13827 17281 17284 28
13828 17281 17285 28
13829 17286 17287 28
13830 17286 17288 28
13831 17286 17289 28
13832 17286 17290 28
13833 17291 17292 28
13834 17291 17293 28
13835 17291 17294 28
13836 17291 17295 28
13837 17296 17297 28
13838 17296 17298 28
13839 17296 17299 28
13840 17296 17300 28
13841 17301 17302 28
13842 17301 17303 28
13843 17301 17304 28
13844 17301 17305 28
13845 17306 17307 28
13846 17306 17308 28
13847 17306 17309 28
13848 17306 17310 28
13849 17311 17312 28
13850 17311 17313 28
13851 17311 17314 28
13852 17311 17315 28
13853 17316 17317 28
13854 17316 17318 28
13855 17316 17319 28
13856 17316 17320 28
13857 17321 17322 28
13858 17321 17323 28
13859 17321 17324 28
13860 17321 17325 28
13861 17326 17327 28
13862 17326 17328 28
13863 17326 17329 28
13864 17326 17330 28
13865 17331 17332 28
13866 17331 17333 28
13867 17331 17334 28
13868 17331 17335 28
13869 17336 17337 28
13870 17336 17338 28
13871 17336 17339 28
13872 17336 17340 28
13873 17341 17342 28
13874 17341 17343 28
13875 17341 17344 28
13876 17341 17345 28
13877 17346 17347 28
13878 17346 17348 28
13879 17346 17349 28
13880 17346 17350 28
13881 17351 17352 28
13882 17351 17353 28
13883 17351 17354 28
13884 17351 17355 28
13885 17356 17357 28
13886 17356 17358 28
13887 17356 17359 28
13888 17356 17360 28
13889 17361 17362 28
13890 17361 17363 28
13891 17361 17364 28
13892 17361 17365 28
13893 17366 17367 28
13894 17366 17368 28
13895 17366 17369 28
13896 17366 17370 28
13897 17371 17372 28
13898 17371 17373 28
13899 17371 17374 28
13900 17371 17375 28
13901 17376 17377 28
13902 17376 17378 28
13903 17376 17379 28
13904 17376 17380 28
13905 17381 17382 28
13906 17381 17383 28
13907 17381 17384 28
13908 17381 17385 28
13909 17386 17387 28
13910 17386 17388 28
13911 17386 17389 28
13912 17386 17390 28
13913 17391 17392 28
13914 17391 17393 28
13915 17391 17394 28
13916 17391 17395 28
13917 17396 17397 28
13918 17396 17398 28
13919 17396 17399 28
13920 17396 17400 28
13921 17401 17402 28
13922 17401 17403 28
13923 17401 17404 28
13924 17401 17405 28
13925 17406 17407 28
13926 17406 17408 28
13927 17406 17409 28
13928 17406 17410 28
13929 17411 17412 28
13930 17411 17413 28
13931 17411 17414 28
13932 17411 17415 28
13933 17416 17417 28
13934 17416 17418 28
13935 17416 17419 28
13936 17416 17420 28
13937 17421 17422 28
13938 17421 17423 28
13939 17421 17424 28
13940 17421 17425 28
13941 17426 17427 28
13942 17426 17428 28
13943 17426 17429 28
13944 17426 17430 28
13945 17431 17432 28
13946 17431 17433 28
13947 17431 17434 28
13948 17431 17435 28
13949 17436 17437 28
13950 17436 17438 28
13951 17436 17439 28
13952 17436 17440 28
13953 17441 17442 28
13954 17441 17443 28
13955 17441 17444 28
13956 17441 17445 28
13957 17446 17447 28
13958 17446 17448 28
13959 17446 17449 28
13960 17446 17450 28
13961 17451 17452 28
13962 17451 17453 28
13963 17451 17454 28
13964 17451 17455 28
13965 17456 17457 28
13966 17456 17458 28
13967 17456 17459 28
13968 17456 17460 28
13969 17461 17462 28
13970 17461 17463 28
13971 17461 17464 28
13972 17461 17465 28
13973 17466 17467 28
13974 17466 17468 28
13975 17466 17469 28
13976 17466 17470 28
13977 17471 17472 28
13978 17471 17473 28
13979 17471 17474 28
13980 17471 17475 28
13981 17476 17477 28
13982 17476 17478 28
13983 17476 17479 28
13984 17476 17480 28
13985 17481 17482 28
13986 17481 17483 28
13987 17481 17484 28
13988 17481 17485 28
13989 17486 17487 28
13990 17486 17488 28
13991 17486 17489 28
13992 17486 17490 28
13993 17491 17492 28
13994 17491 17493 28
13995 17491 17494 28
13996 17491 17495 28
13997 17496 17497 28
13998 17496 17498 28
13999 17496 17499 28
14000 17496 17500 28
14001 17501 17502 28
14002 17501 17503 28
14003 17501 17504 28
14004 17501 17505 28
14005 17506 17507 28
14006 17506 17508 28
14007 17506 17509 28
14008 17506 17510 28
14009 17511 17512 28
14010 17511 17513 28
14011 17511 17514 28
14012 17511 17515 28
14013 17516 17517 28
14014 17516 17518 28
14015 17516 17519 28
14016 17516 17520 28
14017 17521 17522 28
14018 17521 17523 28
14019 17521 17524 28
14020 17521 17525 28
14021 17526 17527 28
14022 17526 17528 28
14023 17526 17529 28
14024 17526 17530 28
14025 17531 17532 28
14026 17531 17533 28
14027 17531 17534 28
14028 17531 17535 28
14029 17536 17537 28
14030 17536 17538 28
14031 17536 17539 28
14032 17536 17540 28
14033 17541 17542 28
14034 17541 17543 28
14035 17541 17544 28
14036 17541 17545 28
14037 17546 17547 28
14038 17546 17548 28
14039 17546 17549 28
14040 17546 17550 28
14041 17551 17552 28
14042 17551 17553 28
14043 17551 17554 28
14044 17551 17555 28
14045 17556 17557 28
14046 17556 17558 28
14047 17556 17559 28
14048 17556 17560 28
14049 17561 17562 28
14050 17561 17563 28
14051 17561 17564 28
14052 17561 17565 28
14053 17566 17567 28
14054 17566 17568 28
14055 17566 17569 28
14056 17566 17570 28
14057 17571 17572 28
14058 17571 17573 28
14059 17571 17574 28
14060 17571 17575 28
14061 17576 17577 28
14062 17576 17578 28
14063 17576 17579 28
14064 17576 17580 28
14065 17581 17582 28
14066 17581 17583 28
14067 17581 17584 28
14068 17581 17585 28
14069 17586 17587 28
14070 17586 17588 28
14071 17586 17589 28
14072 17586 17590 28
14073 17591 17592 28
14074 17591 17593 28
14075 17591 17594 28
14076 17591 17595 28
14077 17596 17597 28
14078 17596 17598 28
14079 17596 17599 28
14080 17596 17600 28
14081 17601 17602 28
14082 17601 17603 28
14083 17601 17604 28
14084 17601 17605 28
14085 17606 17607 28
14086 17606 17608 28
14087 17606 17609 28
14088 17606 17610 28
14089 17611 17612 28
14090 17611 17613 28
14091 17611 17614 28
14092 17611 17615 28
14093 17616 17617 28
14094 17616 17618 28
14095 17616 17619 28
14096 17616 17620 28
14097 17621 17622 28
14098 17621 17623 28
14099 17621 17624 28
14100 17621 17625 28
14101 17626 17627 28
14102 17626 17628 28
14103 17626 17629 28
14104 17626 17630 28
14105 17631 17632 28
14106 17631 17633 28
14107 17631 17634 28
14108 17631 17635 28
14109 17636 17637 28
14110 17636 17638 28
14111 17636 17639 28
14112 17636 17640 28
14113 17641 17642 28
14114 17641 17643 28
14115 17641 17644 28
14116 17641 17645 28
14117 17646 17647 28
14118 17646 17648 28
14119 17646 17649 28
14120 17646 17650 28
14121 17651 17652 28
14122 17651 17653 28
14123 17651 17654 28
14124 17651 17655 28
14125 17656 17657 28
14126 17656 17658 28
14127 17656 17659 28
14128 17656 17660 28
14129 17661 17662 28
14130 17661 17663 28
14131 17661 17664 28
14132 17661 17665 28
14133 17666 17667 28
14134 17666 17668 28
14135 17666 17669 28
14136 17666 17670 28
14137 17671 17672 28
14138 17671 17673 28
14139 17671 17674 28
14140 17671 17675 28
14141 17676 17677 28
14142 17676 17678 28
14143 17676 17679 28
14144 17676 17680 28
14145 17681 17682 28
14146 17681 17683 28
14147 17681 17684 28
14148 17681 17685 28
14149 17686 17687 28
14150 17686 17688 28
14151 17686 17689 28
14152 17686 17690 28
14153 17691 17692 28
14154 17691 17693 28
14155 17691 17694 28
14156 17691 17695 28
14157 17696 17697 28
14158 17696 17698 28
14159 17696 17699 28
14160 17696 17700 28
14161 17701 17702 28
14162 17701 17703 28
14163 17701 17704 28
14164 17701 17705 28
14165 17706 17707 28
14166 17706 17708 28
14167 17706 17709 28
14168 17706 17710 28
14169 17711 17712 28
14170 17711 17713 28
14171 17711 17714 28
14172 17711 17715 28
14173 17716 17717 28
14174 17716 17718 28
14175 17716 17719 28
14176 17716 17720 28
14177 17721 17722 28
14178 17721 17723 28
14179 17721 17724 28
14180 17721 17725 28
14181 17726 17727 28
14182 17726 17728 28
14183 17726 17729 28
14184 17726 17730 28
14185 17731 17732 28
14186 17731 17733 28
14187 17731 17734 28
14188 17731 17735 28
14189 17736 17737 28
14190 17736 17738 28
14191 17736 17739 28
14192 17736 17740 28
14193 17741 17742 28
14194 17741 17743 28
14195 17741 17744 28
14196 17741 17745 28
14197 17746 17747 28
14198 17746 17748 28
14199 17746 17749 28
14200 17746 17750 28
14201 17751 17752 28
14202 17751 17753 28
14203 17751 17754 28
14204 17751 17755 28
14205 17756 17757 28
14206 17756 17758 28
14207 17756 17759 28
14208 17756 17760 28
14209 17761 17762 28
14210 17761 17763 28
14211 17761 17764 28
14212 17761 17765 28
14213 17766 17767 28
14214 17766 17768 28
14215 17766 17769 28
14216 17766 17770 28
14217 17771 17772 28
14218 17771 17773 28
14219 17771 17774 28
14220 17771 17775 28
14221 17776 17777 28
14222 17776 17778 28
14223 17776 17779 28
14224 17776 17780 28
14225 17781 17782 28
14226 17781 17783 28
14227 17781 17784 28
14228 17781 17785 28
14229 17786 17787 28
14230 17786 17788 28
14231 17786 17789 28
14232 17786 17790 28
14233 17791 17792 28
14234 17791 17793 28
14235 17791 17794 28
14236 17791 17795 28
14237 17796 17797 28
14238 17796 17798 28
14239 17796 17799 28
14240 17796 17800 28
14241 17801 17802 28
14242 17801 17803 28
14243 17801 17804 28
14244 17801 17805 28
14245 17806 17807 28
14246 17806 17808 28
14247 17806 17809 28
14248 17806 17810 28
14249 17811 17812 28
14250 17811 17813 28
14251 17811 17814 28
14252 17811 17815 28
14253 17816 17817 28
14254 17816 17818 28
14255 17816 17819 28
14256 17816 17820 28
14257 17821 17822 28
14258 17821 17823 28
14259 17821 17824 28
14260 17821 17825 28
14261 17826 17827 28
14262 17826 17828 28
14263 17826 17829 28
14264 17826 17830 28
14265 17831 17832 28
14266 17831 17833 28
14267 17831 17834 28
14268 17831 17835 28
14269 17836 17837 28
14270 17836 17838 28
14271 17836 17839 28
14272 17836 17840 28
14273 17841 17842 28
14274 17841 17843 28
14275 17841 17844 28
14276 17841 17845 28
14277 17846 17847 28
14278 17846 17848 28
14279 17846 17849 28
14280 17846 17850 28
14281 17851 17852 28
14282 17851 17853 28
14283 17851 17854 28
14284 17851 17855 28
14285 17856 17857 28
14286 17856 17858 28
14287 17856 17859 28
14288 17856 17860 28
14289 17861 17862 28
14290 17861 17863 28
14291 17861 17864 28
14292 17861 17865 28
14293 17866 17867 28
14294 17866 17868 28
14295 17866 17869 28
14296 17866 17870 28
14297 17871 17872 28
14298 17871 17873 28
14299 17871 17874 28
14300 17871 17875 28
14301 17876 17877 28
14302 17876 17878 28
14303 17876 17879 28
14304 17876 17880 28
14305 17881 17882 28
14306 17881 17883 28
14307 17881 17884 28
14308 17881 17885 28
14309 17886 17887 28
14310 17886 17888 28
14311 17886 17889 28
14312 17886 17890 28
14313 17891 17892 28
14314 17891 17893 28
14315 17891 17894 28
14316 17891 17895 28
14317 17896 17897 28
14318 17896 17898 28
14319 17896 17899 28
14320 17896 17900 28
14321 17901 17902 28
14322 17901 17903 28
14323 17901 17904 28
14324 17901 17905 28
14325 17906 17907 28
14326 17906 17908 28
14327 17906 17909 28
14328 17906 17910 28
14329 17911 17912 28
14330 17911 17913 28
14331 17911 17914 28
14332 17911 17915 28
14333 17916 17917 28
14334 17916 17918 28
14335 17916 17919 28
14336 17916 17920 28
14337 17921 17922 28
14338 17921 17923 28
14339 17921 17924 28
14340 17921 17925 28
14341 17926 17927 28
14342 17926 17928 28
14343 17926 17929 28
14344 17926 17930 28
14345 17931 17932 28
14346 17931 17933 28
14347 17931 17934 28
14348 17931 17935 28
14349 17936 17937 28
14350 17936 17938 28
14351 17936 17939 28
14352 17936 17940 28
14353 17941 17942 28
14354 17941 17943 28
14355 17941 17944 28
14356 17941 17945 28
14357 17946 17947 28
14358 17946 17948 28
14359 17946 17949 28
14360 17946 17950 28
14361 17951 17952 28
14362 17951 17953 28
14363 17951 17954 28
14364 17951 17955 28
14365 17956 17957 28
14366 17956 17958 28
14367 17956 17959 28
14368 17956 17960 28
14369 17961 17962 28
14370 17961 17963 28
14371 17961 17964 28
14372 17961 17965 28
14373 17966 17967 28
14374 17966 17968 28
14375 17966 17969 28
14376 17966 17970 28
14377 17971 17972 28
14378 17971 17973 28
14379 17971 17974 28
14380 17971 17975 28
14381 17976 17977 28
14382 17976 17978 28
14383 17976 17979 28
14384 17976 17980 28
14385 17981 17982 28
14386 17981 17983 28
14387 17981 17984 28
14388 17981 17985 28
14389 17986 17987 28
14390 17986 17988 28
14391 17986 17989 28
14392 17986 17990 28
14393 17991 17992 28
14394 17991 17993 28
14395 17991 17994 28
14396 17991 17995 28
14397 17996 17997 28
14398 17996 17998 28
14399 17996 17999 28
14400 17996 18000 28
14401 18001 18002 28
14402 18001 18003 28
14403 18001 18004 28
14404 18001 18005 28
14405 18006 18007 28
14406 18006 18008 28
14407 18006 18009 28
14408 18006 18010 28
14409 18011 18012 28
14410 18011 18013 28
14411 18011 18014 28
14412 18011 18015 28
14413 18016 18017 28
14414 18016 18018 28
14415 18016 18019 28
14416 18016 18020 28
14417 18021 18022 28
14418 18021 18023 28
14419 18021 18024 28
14420 18021 18025 28
14421 18026 18027 28
14422 18026 18028 28
14423 18026 18029 28
14424 18026 18030 28
14425 18031 18032 28
14426 18031 18033 28
14427 18031 18034 28
14428 18031 18035 28
14429 18036 18037 28
14430 18036 18038 28
14431 18036 18039 28
14432 18036 18040 28
14433 18041 18042 28
14434 18041 18043 28
14435 18041 18044 28
14436 18041 18045 28
14437 18046 18047 28
14438 18046 18048 28
14439 18046 18049 28
14440 18046 18050 28
14441 18051 18052 28
14442 18051 18053 28
14443 18051 18054 28
14444 18051 18055 28
14445 18056 18057 28
14446 18056 18058 28
14447 18056 18059 28
14448 18056 18060 28
14449 18061 18062 28
14450 18061 18063 28
14451 18061 18064 28
14452 18061 18065 28
14453 18066 18067 28
14454 18066 18068 28
14455 18066 18069 28
14456 18066 18070 28
14457 18071 18072 28
14458 18071 18073 28
14459 18071 18074 28
14460 18071 18075 28
14461 18076 18077 28
14462 18076 18078 28
14463 18076 18079 28
14464 18076 18080 28
14465 18081 18082 28
14466 18081 18083 28
14467 18081 18084 28
14468 18081 18085 28
14469 18086 18087 28
14470 18086 18088 28
14471 18086 18089 28
14472 18086 18090 28
14473 18091 18092 28
14474 18091 18093 28
14475 18091 18094 28
14476 18091 18095 28
14477 18096 18097 28
14478 18096 18098 28
14479 18096 18099 28
14480 18096 18100 28
14481 18101 18102 28
14482 18101 18103 28
14483 18101 18104 28
14484 18101 18105 28
14485 18106 18107 28
14486 18106 18108 28
14487 18106 18109 28
14488 18106 18110 28
14489 18111 18112 28
14490 18111 18113 28
14491 18111 18114 28
14492 18111 18115 28
14493 18116 18117 28
14494 18116 18118 28
14495 18116 18119 28
14496 18116 18120 28
14497 18121 18122 28
14498 18121 18123 28
14499 18121 18124 28
14500 18121 18125 28
14501 18126 18127 28
14502 18126 18128 28
14503 18126 18129 28
14504 18126 18130 28
14505 18131 18132 28
14506 18131 18133 28
14507 18131 18134 28
14508 18131 18135 28
14509 18136 18137 28
14510 18136 18138 28
14511 18136 18139 28
14512 18136 18140 28
14513 18141 18142 28
14514 18141 18143 28
14515 18141 18144 28
14516 18141 18145 28
14517 18146 18147 28
14518 18146 18148 28
14519 18146 18149 28
14520 18146 18150 28
14521 18151 18152 28
14522 18151 18153 28
14523 18151 18154 28
14524 18151 18155 28
14525 18156 18157 28
14526 18156 18158 28
14527 18156 18159 28
14528 18156 18160 28
14529 18161 18162 28
14530 18161 18163 28
14531 18161 18164 28
14532 18161 18165 28
14533 18166 18167 28
14534 18166 18168 28
14535 18166 18169 28
14536 18166 18170 28
14537 18171 18172 28
14538 18171 18173 28
14539 18171 18174 28
14540 18171 18175 28
14541 18176 18177 28
14542 18176 18178 28
14543 18176 18179 28
14544 18176 18180 28
14545 18181 18182 28
14546 18181 18183 28
14547 18181 18184 28
14548 18181 18185 28
14549 18186 18187 28
14550 18186 18188 28
14551 18186 18189 28
14552 18186 18190 28
14553 18191 18192 28
14554 18191 18193 28
14555 18191 18194 28
14556 18191 18195 28
14557 18196 18197 28
14558 18196 18198 28
14559 18196 18199 28
14560 18196 18200 28
14561 18201 18202 28
14562 18201 18203 28
14563 18201 18204 28
14564 18201 18205 28
14565 18206 18207 28
14566 18206 18208 28
14567 18206 18209 28
14568 18206 18210 28
14569 18211 18212 28
14570 18211 18213 28
14571 18211 18214 28
14572 18211 18215 28
14573 18216 18217 28
14574 18216 18218 28
14575 18216 18219 28
14576 18216 18220 28
14577 18221 18222 28
14578 18221 18223 28
14579 18221 18224 28
14580 18221 18225 28
14581 18226 18227 28
14582 18226 18228 28
14583 18226 18229 28
14584 18226 18230 28
14585 18231 18232 28
14586 18231 18233 28
14587 18231 18234 28
14588 18231 18235 28
14589 18236 18237 28
14590 18236 18238 28
14591 18236 18239 28
14592 18236 18240 28
14593 18241 18242 28
14594 18241 18243 28
14595 18241 18244 28
14596 18241 18245 28
14597 18246 18247 28
14598 18246 18248 28
14599 18246 18249 28
14600 18246 18250 28
14601 18251 18252 28
14602 18251 18253 28
14603 18251 18254 28
14604 18251 18255 28
14605 18256 18257 28
14606 18256 18258 28
14607 18256 18259 28
14608 18256 18260 28
14609 18261 18262 28
14610 18261 18263 28
14611 18261 18264 28
14612 18261 18265 28
14613 18266 18267 28
14614 18266 18268 28
14615 18266 18269 28
14616 18266 18270 28
14617 18271 18272 28
14618 18271 18273 28
14619 18271 18274 28
14620 18271 18275 28
14621 18276 18277 28
14622 18276 18278 28
14623 18276 18279 28
14624 18276 18280 28
14625 18281 18282 28
14626 18281 18283 28
14627 18281 18284 28
14628 18281 18285 28
14629 18286 18287 28
14630 18286 18288 28
14631 18286 18289 28
14632 18286 18290 28
14633 18291 18292 28
14634 18291 18293 28
14635 18291 18294 28
14636 18291 18295 28
14637 18296 18297 28
14638 18296 18298 28
14639 18296 18299 28
14640 18296 18300 28
14641 18301 18302 28
14642 18301 18303 28
14643 18301 18304 28
14644 18301 18305 28
14645 18306 18307 28
14646 18306 18308 28
14647 18306 18309 28
14648 18306 18310 28
14649 18311 18312 28
14650 18311 18313 28
14651 18311 18314 28
14652 18311 18315 28
14653 18316 18317 28
14654 18316 18318 28
14655 18316 18319 28
14656 18316 18320 28
14657 18321 18322 28
14658 18321 18323 28
14659 18321 18324 28
14660 18321 18325 28
14661 18326 18327 28
14662 18326 18328 28
14663 18326 18329 28
14664 18326 18330 28
14665 18331 18332 28
14666 18331 18333 28
14667 18331 18334 28
14668 18331 18335 28
14669 18336 18337 28
14670 18336 18338 28
14671 18336 18339 28
14672 18336 18340 28
14673 18341 18342 28
14674 18341 18343 28
14675 18341 18344 28
14676 18341 18345 28
14677 18346 18347 28
14678 18346 18348 28
14679 18346 18349 28
14680 18346 18350 28
14681 18351 18352 28
14682 18351 18353 28
14683 18351 18354 28
14684 18351 18355 28
14685 18356 18357 28
14686 18356 18358 28
14687 18356 18359 28
14688 18356 18360 28
14689 18361 18362 28
14690 18361 18363 28
14691 18361 18364 28
14692 18361 18365 28
14693 18366 18367 28
14694 18366 18368 28
14695 18366 18369 28
14696 18366 18370 28
14697 18371 18372 28
14698 18371 18373 28
14699 18371 18374 28
14700 18371 18375 28
14701 18376 18377 28
14702 18376 18378 28
14703 18376 18379 28
14704 18376 18380 28
14705 18381 18382 28
14706 18381 18383 28
14707 18381 18384 28
14708 18381 18385 28
14709 18386 18387 28
14710 18386 18388 28
14711 18386 18389 28
14712 18386 18390 28
14713 18391 18392 28
14714 18391 18393 28
14715 18391 18394 28
14716 18391 18395 28
14717 18396 18397 28
14718 18396 18398 28
14719 18396 18399 28
14720 18396 18400 28
14721 18401 18402 28
14722 18401 18403 28
14723 18401 18404 28
14724 18401 18405 28
14725 18406 18407 28
14726 18406 18408 28
14727 18406 18409 28
14728 18406 18410 28
14729 18411 18412 28
14730 18411 18413 28
14731 18411 18414 28
14732 18411 18415 28
14733 18416 18417 28
14734 18416 18418 28
14735 18416 18419 28
14736 18416 18420 28
14737 18421 18422 28
14738 18421 18423 28
14739 18421 18424 28
14740 18421 18425 28
14741 18426 18427 28
14742 18426 18428 28
14743 18426 18429 28
14744 18426 18430 28
14745 18431 18432 28
14746 18431 18433 28
14747 18431 18434 28
14748 18431 18435 28
14749 18436 18437 28
14750 18436 18438 28
14751 18436 18439 28
14752 18436 18440 28
14753 18441 18442 28
14754 18441 18443 28
14755 18441 18444 28
14756 18441 18445 28
14757 18446 18447 28
14758 18446 18448 28
14759 18446 18449 28
14760 18446 18450 28
14761 18451 18452 28
14762 18451 18453 28
14763 18451 18454 28
14764 18451 18455 28
14765 18456 18457 28
14766 18456 18458 28
14767 18456 18459 28
14768 18456 18460 28
14769 18461 18462 28
14770 18461 18463 28
14771 18461 18464 28
14772 18461 18465 28
14773 18466 18467 28
14774 18466 18468 28
14775 18466 18469 28
14776 18466 18470 28
14777 18471 18472 28
14778 18471 18473 28
14779 18471 18474 28
14780 18471 18475 28
14781 18476 18477 28
14782 18476 18478 28
14783 18476 18479 28
14784 18476 18480 28
14785 18481 18482 28
14786 18481 18483 28
14787 18481 18484 28
14788 18481 18485 28
14789 18486 18487 28
14790 18486 18488 28
14791 18486 18489 28
14792 18486 18490 28
14793 18491 18492 28
14794 18491 18493 28
14795 18491 18494 28
14796 18491 18495 28
14797 18496 18497 28
14798 18496 18498 28
14799 18496 18499 28
14800 18496 18500 28
14801 18501 18502 28
14802 18501 18503 28
14803 18501 18504 28
14804 18501 18505 28
14805 18506 18507 28
14806 18506 18508 28
14807 18506 18509 28
14808 18506 18510 28
14809 18511 18512 28
14810 18511 18513 28
14811 18511 18514 28
14812 18511 18515 28
14813 18516 18517 28
14814 18516 18518 28
14815 18516 18519 28
14816 18516 18520 28
14817 18521 18522 28
14818 18521 18523 28
14819 18521 18524 28
14820 18521 18525 28
14821 18526 18527 28
14822 18526 18528 28
14823 18526 18529 28
14824 18526 18530 28
14825 18531 18532 28
14826 18531 18533 28
14827 18531 18534 28
14828 18531 18535 28
14829 18536 18537 28
14830 18536 18538 28
14831 18536 18539 28
14832 18536 18540 28
14833 18541 18542 28
14834 18541 18543 28
14835 18541 18544 28
14836 18541 18545 28
14837 18546 18547 28
14838 18546 18548 28
14839 18546 18549 28
14840 18546 18550 28
14841 18551 18552 28
14842 18551 18553 28
14843 18551 18554 28
14844 18551 18555 28
14845 18556 18557 28
14846 18556 18558 28
14847 18556 18559 28
14848 18556 18560 28
14849 18561 18562 28
14850 18561 18563 28
14851 18561 18564 28
14852 18561 18565 28
14853 18566 18567 28
14854 18566 18568 28
14855 18566 18569 28
14856 18566 18570 28
14857 18571 18572 28
14858 18571 18573 28
14859 18571 18574 28
14860 18571 18575 28
14861 18576 18577 28
14862 18576 18578 28
14863 18576 18579 28
14864 18576 18580 28
14865 18581 18582 28
14866 18581 18583 28
14867 18581 18584 28
14868 18581 18585 28
14869 18586 18587 28
14870 18586 18588 28
14871 18586 18589 28
14872 18586 18590 28
14873 18591 18592 28
14874 18591 18593 28
14875 18591 18594 28
14876 18591 18595 28
14877 18596 18597 28
14878 18596 18598 28
14879 18596 18599 28
14880 18596 18600 28
14881 18601 18602 28
14882 18601 18603 28
14883 18601 18604 28
14884 18601 18605 28
14885 18606 18607 28
14886 18606 18608 28
14887 18606 18609 28
14888 18606 18610 28
14889 18611 18612 28
14890 18611 18613 28
14891 18611 18614 28
14892 18611 18615 28
14893 18616 18617 28
14894 18616 18618 28
14895 18616 18619 28
14896 18616 18620 28
14897 18621 18622 28
14898 18621 18623 28
14899 18621 18624 28
14900 18621 18625 28
14901 18626 18627 28
14902 18626 18628 28
14903 18626 18629 28
14904 18626 18630 28
14905 18631 18632 28
14906 18631 18633 28
14907 18631 18634 28
14908 18631 18635 28
14909 18636 18637 28
14910 18636 18638 28
14911 18636 18639 28
14912 18636 18640 28
14913 18641 18642 28
14914 18641 18643 28
14915 18641 18644 28
14916 18641 18645 28
14917 18646 18647 28
14918 18646 18648 28
14919 18646 18649 28
14920 18646 18650 28
14921 18651 18652 28
14922 18651 18653 28
14923 18651 18654 28
14924 18651 18655 28
14925 18656 18657 28
14926 18656 18658 28
14927 18656 18659 28
14928 18656 18660 28
14929 18661 18662 28
14930 18661 18663 28
14931 18661 18664 28
14932 18661 18665 28
14933 18666 18667 28
14934 18666 18668 28
14935 18666 18669 28
14936 18666 18670 28
14937 18671 18672 28
14938 18671 18673 28
14939 18671 18674 28
14940 18671 18675 28
14941 18676 18677 28
14942 18676 18678 28
14943 18676 18679 28
14944 18676 18680 28
14945 18681 18682 28
14946 18681 18683 28
14947 18681 18684 28
14948 18681 18685 28
14949 18686 18687 28
14950 18686 18688 28
14951 18686 18689 28
14952 18686 18690 28
14953 18691 18692 28
14954 18691 18693 28
14955 18691 18694 28
14956 18691 18695 28
14957 18696 18697 28
14958 18696 18698 28
14959 18696 18699 28
14960 18696 18700 28
14961 18701 18702 28
14962 18701 18703 28
14963 18701 18704 28
14964 18701 18705 28
14965 18706 18707 28
14966 18706 18708 28
14967 18706 18709 28
14968 18706 18710 28
14969 18711 18712 28
14970 18711 18713 28
14971 18711 18714 28
14972 18711 18715 28
14973 18716 18717 28
14974 18716 18718 28
14975 18716 18719 28
14976 18716 18720 28
14977 18721 18722 28
14978 18721 18723 28
14979 18721 18724 28
14980 18721 18725 28
14981 18726 18727 28
14982 18726 18728 28
14983 18726 18729 28
14984 18726 18730 28
14985 18731 18732 28
14986 18731 18733 28
14987 18731 18734 28
14988 18731 18735 28
14989 18736 18737 28
14990 18736 18738 28
14991 18736 18739 28
14992 18736 18740 28
14993 18741 18742 28
14994 18741 18743 28
14995 18741 18744 28
14996 18741 18745 28
14997 18746 18747 28
14998 18746 18748 28
14999 18746 18749 28
15000 18746 18750 28
15001 18751 18752 28
15002 18751 18753 28
15003 18751 18754 28
15004 18751 18755 28
15005 18756 18757 28
15006 18756 18758 28
15007 18756 18759 28
15008 18756 18760 28
15009 18761 18762 28
15010 18761 18763 28
15011 18761 18764 28
15012 18761 18765 28
15013 18766 18767 28
15014 18766 18768 28
15015 18766 18769 28
15016 18766 18770 28
15017 18771 18772 28
15018 18771 18773 28
15019 18771 18774 28
15020 18771 18775 28
15021 18776 18777 28
15022 18776 18778 28
15023 18776 18779 28
15024 18776 18780 28
15025 18781 18782 28
15026 18781 18783 28
15027 18781 18784 28
15028 18781 18785 28
15029 18786 18787 28
15030 18786 18788 28
15031 18786 18789 28
15032 18786 18790 28
15033 18791 18792 28
15034 18791 18793 28
15035 18791 18794 28
15036 18791 18795 28
15037 18796 18797 28
15038 18796 18798 28
15039 18796 18799 28
15040 18796 18800 28
15041 18801 18802 28
15042 18801 18803 28
15043 18801 18804 28
15044 18801 18805 28
15045 18806 18807 28
15046 18806 18808 28
15047 18806 18809 28
15048 18806 18810 28
15049 18811 18812 28
15050 18811 18813 28
15051 18811 18814 28
15052 18811 18815 28
15053 18816 18817 28
15054 18816 18818 28
15055 18816 18819 28
15056 18816 18820 28
15057 18821 18822 28
15058 18821 18823 28
15059 18821 18824 28
15060 18821 18825 28
15061 18826 18827 28
15062 18826 18828 28
15063 18826 18829 28
15064 18826 18830 28
15065 18831 18832 28
15066 18831 18833 28
15067 18831 18834 28
15068 18831 18835 28
15069 18836 18837 28
15070 18836 18838 28
15071 18836 18839 28
15072 18836 18840 28
15073 18841 18842 28
15074 18841 18843 28
15075 18841 18844 28
15076 18841 18845 28
15077 18846 18847 28
15078 18846 18848 28
15079 18846 18849 28
15080 18846 18850 28
15081 18851 18852 28
15082 18851 18853 28
15083 18851 18854 28
15084 18851 18855 28
15085 18856 18857 28
15086 18856 18858 28
15087 18856 18859 28
15088 18856 18860 28
15089 18861 18862 28
15090 18861 18863 28
15091 18861 18864 28
15092 18861 18865 28
15093 18866 18867 28
15094 18866 18868 28
15095 18866 18869 28
15096 18866 18870 28
15097 18871 18872 28
15098 18871 18873 28
15099 18871 18874 28
15100 18871 18875 28
15101 18876 18877 28
15102 18876 18878 28
15103 18876 18879 28
15104 18876 18880 28
15105 18881 18882 28
15106 18881 18883 28
15107 18881 18884 28
15108 18881 18885 28
15109 18886 18887 28
15110 18886 18888 28
15111 18886 18889 28
15112 18886 18890 28
15113 18891 18892 28
15114 18891 18893 28
15115 18891 18894 28
15116 18891 18895 28
15117 18896 18897 28
15118 18896 18898 28
15119 18896 18899 28
15120 18896 18900 28
15121 18901 18902 28
15122 18901 18903 28
15123 18901 18904 28
15124 18901 18905 28
15125 18906 18907 28
15126 18906 18908 28
15127 18906 18909 28
15128 18906 18910 28
15129 18911 18912 28
15130 18911 18913 28
15131 18911 18914 28
15132 18911 18915 28
15133 18916 18917 28
15134 18916 18918 28
15135 18916 18919 28
15136 18916 18920 28
15137 18921 18922 28
15138 18921 18923 28
15139 18921 18924 28
15140 18921 18925 28
15141 18926 18927 28
15142 18926 18928 28
15143 18926 18929 28
15144 18926 18930 28
15145 18931 18932 28
15146 18931 18933 28
15147 18931 18934 28
15148 18931 18935 28
15149 18936 18937 28
15150 18936 18938 28
15151 18936 18939 28
15152 18936 18940 28
15153 18941 18942 28
15154 18941 18943 28
15155 18941 18944 28
15156 18941 18945 28
15157 18946 18947 28
15158 18946 18948 28
15159 18946 18949 28
15160 18946 18950 28
15161 18951 18952 28
15162 18951 18953 28
15163 18951 18954 28
15164 18951 18955 28
15165 18956 18957 28
15166 18956 18958 28
15167 18956 18959 28
15168 18956 18960 28
15169 18961 18962 28
15170 18961 18963 28
15171 18961 18964 28
15172 18961 18965 28
15173 18966 18967 28
15174 18966 18968 28
15175 18966 18969 28
15176 18966 18970 28
15177 18971 18972 28
15178 18971 18973 28
15179 18971 18974 28
15180 18971 18975 28
15181 18976 18977 28
15182 18976 18978 28
15183 18976 18979 28
15184 18976 18980 28
15185 18981 18982 28
15186 18981 18983 28
15187 18981 18984 28
15188 18981 18985 28
15189 18986 18987 28
15190 18986 18988 28
15191 18986 18989 28
15192 18986 18990 28
15193 18991 18992 28
15194 18991 18993 28
15195 18991 18994 28
15196 18991 18995 28
15197 18996 18997 28
15198 18996 18998 28
15199 18996 18999 28
15200 18996 19000 28
15201 19001 19002 28
15202 19001 19003 28
15203 19001 19004 28
15204 19001 19005 28
15205 19006 19007 28
15206 19006 19008 28
15207 19006 19009 28
15208 19006 19010 28
15209 19011 19012 28
15210 19011 19013 28
15211 19011 19014 28
15212 19011 19015 28
15213 19016 19017 28
15214 19016 19018 28
15215 19016 19019 28
15216 19016 19020 28
15217 19021 19022 28
15218 19021 19023 28
15219 19021 19024 28
15220 19021 19025 28
15221 19026 19027 28
15222 19026 19028 28
15223 19026 19029 28
15224 19026 19030 28
15225 19031 19032 28
15226 19031 19033 28
15227 19031 19034 28
15228 19031 19035 28
15229 19036 19037 28
15230 19036 19038 28
15231 19036 19039 28
15232 19036 19040 28
15233 19041 19042 28
15234 19041 19043 28
15235 19041 19044 28
15236 19041 19045 28
15237 19046 19047 28
15238 19046 19048 28
15239 19046 19049 28
15240 19046 19050 28
15241 19051 19052 28
15242 19051 19053 28
15243 19051 19054 28
15244 19051 19055 28
15245 19056 19057 28
15246 19056 19058 28
15247 19056 19059 28
15248 19056 19060 28
15249 19061 19062 28
15250 19061 19063 28
15251 19061 19064 28
15252 19061 19065 28
15253 19066 19067 28
15254 19066 19068 28
15255 19066 19069 28
15256 19066 19070 28
15257 19071 19072 28
15258 19071 19073 28
15259 19071 19074 28
15260 19071 19075 28
15261 19076 19077 28
15262 19076 19078 28
15263 19076 19079 28
15264 19076 19080 28
15265 19081 19082 28
15266 19081 19083 28
15267 19081 19084 28
15268 19081 19085 28
15269 19086 19087 28
15270 19086 19088 28
15271 19086 19089 28
15272 19086 19090 28
15273 19091 19092 28
15274 19091 19093 28
15275 19091 19094 28
15276 19091 19095 28
15277 19096 19097 28
15278 19096 19098 28
15279 19096 19099 28
15280 19096 19100 28
15281 19101 19102 28
15282 19101 19103 28
15283 19101 19104 28
15284 19101 19105 28
15285 19106 19107 28
15286 19106 19108 28
15287 19106 19109 28
15288 19106 19110 28
15289 19111 19112 28
15290 19111 19113 28
15291 19111 19114 28
15292 19111 19115 28
15293 19116 19117 28
15294 19116 19118 28
15295 19116 19119 28
15296 19116 19120 28
15297 19121 19122 28
15298 19121 19123 28
15299 19121 19124 28
15300 19121 19125 28
15301 19126 19127 28
15302 19126 19128 28
15303 19126 19129 28
15304 19126 19130 28
15305 19131 19132 28
15306 19131 19133 28
15307 19131 19134 28
15308 19131 19135 28
15309 19136 19137 28
15310 19136 19138 28
15311 19136 19139 28
15312 19136 19140 28
15313 19141 19142 28
15314 19141 19143 28
15315 19141 19144 28
15316 19141 19145 28
15317 19146 19147 28
15318 19146 19148 28
15319 19146 19149 28
15320 19146 19150 28
15321 19151 19152 28
15322 19151 19153 28
15323 19151 19154 28
15324 19151 19155 28
15325 19156 19157 28
15326 19156 19158 28
15327 19156 19159 28
15328 19156 19160 28
15329 19161 19162 28
15330 19161 19163 28
15331 19161 19164 28
15332 19161 19165 28
15333 19166 19167 28
15334 19166 19168 28
15335 19166 19169 28
15336 19166 19170 28
15337 19171 19172 28
15338 19171 19173 28
15339 19171 19174 28
15340 19171 19175 28
15341 19176 19177 28
15342 19176 19178 28
15343 19176 19179 28
15344 19176 19180 28
15345 19181 19182 28
15346 19181 19183 28
15347 19181 19184 28
15348 19181 19185 28
15349 19186 19187 28
15350 19186 19188 28
15351 19186 19189 28
15352 19186 19190 28
15353 19191 19192 28
15354 19191 19193 28
15355 19191 19194 28
15356 19191 19195 28
15357 19196 19197 28
15358 19196 19198 28
15359 19196 19199 28
15360 19196 19200 28
15361 19201 19202 28
15362 19201 19203 28
15363 19201 19204 28
15364 19201 19205 28
15365 19206 19207 28
15366 19206 19208 28
15367 19206 19209 28
15368 19206 19210 28
15369 19211 19212 28
15370 19211 19213 28
15371 19211 19214 28
15372 19211 19215 28
15373 19216 19217 28
15374 19216 19218 28
15375 19216 19219 28
15376 19216 19220 28
15377 19221 19222 28
15378 19221 19223 28
15379 19221 19224 28
15380 19221 19225 28
15381 19226 19227 28
15382 19226 19228 28
15383 19226 19229 28
15384 19226 19230 28
15385 19231 19232 28
15386 19231 19233 28
15387 19231 19234 28
15388 19231 19235 28
15389 19236 19237 28
15390 19236 19238 28
15391 19236 19239 28
15392 19236 19240 28
15393 19241 19242 28
15394 19241 19243 28
15395 19241 19244 28
15396 19241 19245 28
15397 19246 19247 28
15398 19246 19248 28
15399 19246 19249 28
15400 19246 19250 28
15401 19251 19252 28
15402 19251 19253 28
15403 19251 19254 28
15404 19251 19255 28
15405 19256 19257 28
15406 19256 19258 28
15407 19256 19259 28
15408 19256 19260 28
15409 19261 19262 28
15410 19261 19263 28
15411 19261 19264 28
15412 19261 19265 28
15413 19266 19267 28
15414 19266 19268 28
15415 19266 19269 28
15416 19266 19270 28
15417 19271 19272 28
15418 19271 19273 28
15419 19271 19274 28
15420 19271 19275 28
15421 19276 19277 28
15422 19276 19278 28
15423 19276 19279 28
15424 19276 19280 28
15425 19281 19282 28
15426 19281 19283 28
15427 19281 19284 28
15428 19281 19285 28
15429 19286 19287 28
15430 19286 19288 28
15431 19286 19289 28
15432 19286 19290 28
15433 19291 19292 28
15434 19291 19293 28
15435 19291 19294 28
15436 19291 19295 28
15437 19296 19297 28
15438 19296 19298 28
15439 19296 19299 28
15440 19296 19300 28
15441 19301 19302 28
15442 19301 19303 28
15443 19301 19304 28
15444 19301 19305 28
15445 19306 19307 28
15446 19306 19308 28
15447 19306 19309 28
15448 19306 19310 28
15449 19311 19312 28
15450 19311 19313 28
15451 19311 19314 28
15452 19311 19315 28
15453 19316 19317 28
15454 19316 19318 28
15455 19316 19319 28
15456 19316 19320 28
15457 19321 19322 28
15458 19321 19323 28
15459 19321 19324 28
15460 19321 19325 28
15461 19326 19327 28
15462 19326 19328 28
15463 19326 19329 28
15464 19326 19330 28
15465 19331 19332 28
15466 19331 19333 28
15467 19331 19334 28
15468 19331 19335 28
15469 19336 19337 28
15470 19336 19338 28
15471 19336 19339 28
15472 19336 19340 28
15473 19341 19342 28
15474 19341 19343 28
15475 19341 19344 28
15476 19341 19345 28
15477 19346 19347 28
15478 19346 19348 28
15479 19346 19349 28
15480 19346 19350 28
15481 19351 19352 28
15482 19351 19353 28
15483 19351 19354 28
15484 19351 19355 28
15485 19356 19357 28
15486 19356 19358 28
15487 19356 19359 28
15488 19356 19360 28
15489 19361 19362 28
15490 19361 19363 28
15491 19361 19364 28
15492 19361 19365 28
15493 19366 19367 28
15494 19366 19368 28
15495 19366 19369 28
15496 19366 19370 28
15497 19371 19372 28
15498 19371 19373 28
15499 19371 19374 28
15500 19371 19375 28
15501 19376 19377 28
15502 19376 19378 28
15503 19376 19379 28
15504 19376 19380 28
15505 19381 19382 28
15506 19381 19383 28
15507 19381 19384 28
15508 19381 19385 28
15509 19386 19387 28
15510 19386 19388 28
15511 19386 19389 28
15512 19386 19390 28
15513 19391 19392 28
15514 19391 19393 28
15515 19391 19394 28
15516 19391 19395 28
15517 19396 19397 28
15518 19396 19398 28
15519 19396 19399 28
15520 19396 19400 28
15521 19401 19402 28
15522 19401 19403 28
15523 19401 19404 28
15524 19401 19405 28
15525 19406 19407 28
15526 19406 19408 28
15527 19406 19409 28
15528 19406 19410 28
15529 19411 19412 28
15530 19411 19413 28
15531 19411 19414 28
15532 19411 19415 28
15533 19416 19417 28
15534 19416 19418 28
15535 19416 19419 28
15536 19416 19420 28
15537 19421 19422 28
15538 19421 19423 28
15539 19421 19424 28
15540 19421 19425 28
15541 19426 19427 28
15542 19426 19428 28
15543 19426 19429 28
15544 19426 19430 28
15545 19431 19432 28
15546 19431 19433 28
15547 19431 19434 28
15548 19431 19435 28
15549 19436 19437 28
15550 19436 19438 28
15551 19436 19439 28
15552 19436 19440 28
15553 19441 19442 28
15554 19441 19443 28
15555 19441 19444 28
15556 19441 19445 28
15557 19446 19447 28
15558 19446 19448 28
15559 19446 19449 28
15560 19446 19450 28
15561 19451 19452 28
15562 19451 19453 28
15563 19451 19454 28
15564 19451 19455 28
15565 19456 19457 28
15566 19456 19458 28
15567 19456 19459 28
15568 19456 19460 28
15569 19461 19462 28
15570 19461 19463 28
15571 19461 19464 28
15572 19461 19465 28
15573 19466 19467 28
15574 19466 19468 28
15575 19466 19469 28
15576 19466 19470 28
15577 19471 19472 28
15578 19471 19473 28
15579 19471 19474 28
15580 19471 19475 28
15581 19476 19477 28
15582 19476 19478 28
15583 19476 19479 28
15584 19476 19480 28
15585 19481 19482 28
15586 19481 19483 28
15587 19481 19484 28
15588 19481 19485 28
15589 19486 19487 28
15590 19486 19488 28
15591 19486 19489 28
15592 19486 19490 28
15593 19491 19492 28
15594 19491 19493 28
15595 19491 19494 28
15596 19491 19495 28
15597 19496 19497 28
15598 19496 19498 28
15599 19496 19499 28
15600 19496 19500 28
15601 19501 19502 28
15602 19501 19503 28
15603 19501 19504 28
15604 19501 19505 28
15605 19506 19507 28
15606 19506 19508 28
15607 19506 19509 28
15608 19506 19510 28
15609 19511 19512 28
15610 19511 19513 28
15611 19511 19514 28
15612 19511 19515 28
15613 19516 19517 28
15614 19516 19518 28
15615 19516 19519 28
15616 19516 19520 28
15617 19521 19522 28
15618 19521 19523 28
15619 19521 19524 28
15620 19521 19525 28
15621 19526 19527 28
15622 19526 19528 28
15623 19526 19529 28
15624 19526 19530 28
15625 19531 19532 28
15626 19531 19533 28
15627 19531 19534 28
15628 19531 19535 28
15629 19536 19537 28
15630 19536 19538 28
15631 19536 19539 28
15632 19536 19540 28
15633 19541 19542 28
15634 19541 19543 28
15635 19541 19544 28
15636 19541 19545 28
15637 19546 19547 28
15638 19546 19548 28
15639 19546 19549 28
15640 19546 19550 28
15641 19551 19552 28
15642 19551 19553 28
15643 19551 19554 28
15644 19551 19555 28
15645 19556 19557 28
15646 19556 19558 28
15647 19556 19559 28
15648 19556 19560 28
15649 19561 19562 28
15650 19561 19563 28
15651 19561 19564 28
15652 19561 19565 28
15653 19566 19567 28
15654 19566 19568 28
15655 19566 19569 28
15656 19566 19570 28
15657 19571 19572 28
15658 19571 19573 28
15659 19571 19574 28
15660 19571 19575 28
15661 19576 19577 28
15662 19576 19578 28
15663 19576 19579 28
15664 19576 19580 28
15665 19581 19582 28
15666 19581 19583 28
15667 19581 19584 28
15668 19581 19585 28
15669 19586 19587 28
15670 19586 19588 28
15671 19586 19589 28
15672 19586 19590 28
15673 19591 19592 28
15674 19591 19593 28
15675 19591 19594 28
15676 19591 19595 28
15677 19596 19597 28
15678 19596 19598 28
15679 19596 19599 28
15680 19596 19600 28
15681 19601 19602 28
15682 19601 19603 28
15683 19601 19604 28
15684 19601 19605 28
15685 19606 19607 28
15686 19606 19608 28
15687 19606 19609 28
15688 19606 19610 28
15689 19611 19612 28
15690 19611 19613 28
15691 19611 19614 28
15692 19611 19615 28
15693 19616 19617 28
15694 19616 19618 28
15695 19616 19619 28
15696 19616 19620 28
15697 19621 19622 28
15698 19621 19623 28
15699 19621 19624 28
15700 19621 19625 28
15701 19626 19627 28
15702 19626 19628 28
15703 19626 19629 28
15704 19626 19630 28
15705 19631 19632 28
15706 19631 19633 28
15707 19631 19634 28
15708 19631 19635 28
15709 19636 19637 28
15710 19636 19638 28
15711 19636 19639 28
15712 19636 19640 28
15713 19641 19642 28
15714 19641 19643 28
15715 19641 19644 28
15716 19641 19645 28
15717 19646 19647 28
15718 19646 19648 28
15719 19646 19649 28
15720 19646 19650 28
15721 19651 19652 28
15722 19651 19653 28
15723 19651 19654 28
15724 19651 19655 28
15725 19656 19657 28
15726 19656 19658 28
15727 19656 19659 28
15728 19656 19660 28
15729 19661 19662 28
15730 19661 19663 28
15731 19661 19664 28
15732 19661 19665 28
15733 19666 19667 28
15734 19666 19668 28
15735 19666 19669 28
15736 19666 19670 28
15737 19671 19672 28
15738 19671 19673 28
15739 19671 19674 28
15740 19671 19675 28
15741 19676 19677 28
15742 19676 19678 28
15743 19676 19679 28
15744 19676 19680 28
15745 19681 19682 28
15746 19681 19683 28
15747 19681 19684 28
15748 19681 19685 28
15749 19686 19687 28
15750 19686 19688 28
15751 19686 19689 28
15752 19686 19690 28
15753 19691 19692 28
15754 19691 19693 28
15755 19691 19694 28
15756 19691 19695 28
15757 19696 19697 28
15758 19696 19698 28
15759 19696 19699 28
15760 19696 19700 28
15761 19701 19702 28
15762 19701 19703 28
15763 19701 19704 28
15764 19701 19705 28
15765 19706 19707 28
15766 19706 19708 28
15767 19706 19709 28
15768 19706 19710 28
15769 19711 19712 28
15770 19711 19713 28
15771 19711 19714 28
15772 19711 19715 28
15773 19716 19717 28
15774 19716 19718 28
15775 19716 19719 28
15776 19716 19720 28
15777 19721 19722 28
15778 19721 19723 28
15779 19721 19724 28
15780 19721 19725 28
15781 19726 19727 28
15782 19726 19728 28
15783 19726 19729 28
15784 19726 19730 28
15785 19731 19732 28
15786 19731 19733 28
15787 19731 19734 28
15788 19731 19735 28
15789 19736 19737 28
15790 19736 19738 28
15791 19736 19739 28
15792 19736 19740 28
15793 19741 19742 28
15794 19741 19743 28
15795 19741 19744 28
15796 19741 19745 28
15797 19746 19747 28
15798 19746 19748 28
15799 19746 19749 28
15800 19746 19750 28
15801 19751 19752 28
15802 19751 19753 28
15803 19751 19754 28
15804 19751 19755 28
15805 19756 19757 28
15806 19756 19758 28
15807 19756 19759 28
15808 19756 19760 28
15809 19761 19762 28
15810 19761 19763 28
15811 19761 19764 28
15812 19761 19765 28
15813 19766 19767 28
15814 19766 19768 28
15815 19766 19769 28
15816 19766 19770 28
15817 19771 19772 28
15818 19771 19773 28
15819 19771 19774 28
15820 19771 19775 28
15821 19776 19777 28
15822 19776 19778 28
15823 19776 19779 28
15824 19776 19780 28
15825 19781 19782 28
15826 19781 19783 28
15827 19781 19784 28
15828 19781 19785 28
15829 19786 19787 28
15830 19786 19788 28
15831 19786 19789 28
15832 19786 19790 28
15833 19791 19792 28
15834 19791 19793 28
15835 19791 19794 28
15836 19791 19795 28
15837 19796 19797 28
15838 19796 19798 28
15839 19796 19799 28
15840 19796 19800 28
15841 19801 19802 28
15842 19801 19803 28
15843 19801 19804 28
15844 19801 19805 28
15845 19806 19807 28
15846 19806 19808 28
15847 19806 19809 28
15848 19806 19810 28
15849 19811 19812 28
15850 19811 19813 28
15851 19811 19814 28
15852 19811 19815 28
15853 19816 19817 28
15854 19816 19818 28
15855 19816 19819 28
15856 19816 19820 28
15857 19821 19822 28
15858 19821 19823 28
15859 19821 19824 28
15860 19821 19825 28
15861 19826 19827 28
15862 19826 19828 28
15863 19826 19829 28
15864 19826 19830 28
15865 19831 19832 28
15866 19831 19833 28
15867 19831 19834 28
15868 19831 19835 28
15869 19836 19837 28
15870 19836 19838 28
15871 19836 19839 28
15872 19836 19840 28
15873 19841 19842 28
15874 19841 19843 28
15875 19841 19844 28
15876 19841 19845 28
15877 19846 19847 28
15878 19846 19848 28
15879 19846 19849 28
15880 19846 19850 28
15881 19851 19852 28
15882 19851 19853 28
15883 19851 19854 28
15884 19851 19855 28
15885 19856 19857 28
15886 19856 19858 28
15887 19856 19859 28
15888 19856 19860 28
15889 19861 19862 28
15890 19861 19863 28
15891 19861 19864 28
15892 19861 19865 28
15893 19866 19867 28
15894 19866 19868 28
15895 19866 19869 28
15896 19866 19870 28
15897 19871 19872 28
15898 19871 19873 28
15899 19871 19874 28
15900 19871 19875 28
15901 19876 19877 28
15902 19876 19878 28
15903 19876 19879 28
15904 19876 19880 28
15905 19881 19882 28
15906 19881 19883 28
15907 19881 19884 28
15908 19881 19885 28
15909 19886 19887 28
15910 19886 19888 28
15911 19886 19889 28
15912 19886 19890 28
15913 19891 19892 28
15914 19891 19893 28
15915 19891 19894 28
15916 19891 19895 28
15917 19896 19897 28
15918 19896 19898 28
15919 19896 19899 28
15920 19896 19900 28
15921 19901 19902 28
15922 19901 19903 28
15923 19901 19904 28
15924 19901 19905 28
15925 19906 19907 28
15926 19906 19908 28
15927 19906 19909 28
15928 19906 19910 28
15929 19911 19912 28
15930 19911 19913 28
15931 19911 19914 28
15932 19911 19915 28
15933 19916 19917 28
15934 19916 19918 28
15935 19916 19919 28
15936 19916 19920 28
15937 19921 19922 28
15938 19921 19923 28
15939 19921 19924 28
15940 19921 19925 28
15941 19926 19927 28
15942 19926 19928 28
15943 19926 19929 28
15944 19926 19930 28
15945 19931 19932 28
15946 19931 19933 28
15947 19931 19934 28
15948 19931 19935 28
15949 19936 19937 28
15950 19936 19938 28
15951 19936 19939 28
15952 19936 19940 28
15953 19941 19942 28
15954 19941 19943 28
15955 19941 19944 28
15956 19941 19945 28
15957 19946 19947 28
15958 19946 19948 28
15959 19946 19949 28
15960 19946 19950 28
15961 19951 19952 28
15962 19951 19953 28
15963 19951 19954 28
15964 19951 19955 28
15965 19956 19957 28
15966 19956 19958 28
15967 19956 19959 28
15968 19956 19960 28
15969 19961 19962 28
15970 19961 19963 28
15971 19961 19964 28
15972 19961 19965 28
15973 19966 19967 28
15974 19966 19968 28
15975 19966 19969 28
15976 19966 19970 28
15977 19971 19972 28
15978 19971 19973 28
15979 19971 19974 28
15980 19971 19975 28
15981 19976 19977 28
15982 19976 19978 28
15983 19976 19979 28
15984 19976 19980 28
15985 19981 19982 28
15986 19981 19983 28
15987 19981 19984 28
15988 19981 19985 28
15989 19986 19987 28
15990 19986 19988 28
15991 19986 19989 28
15992 19986 19990 28
15993 19991 19992 28
15994 19991 19993 28
15995 19991 19994 28
15996 19991 19995 28
15997 19996 19997 28
15998 19996 19998 28
15999 19996 19999 28
16000 19996 20000 28
16001 20001 20002 28
16002 20001 20003 28
16003 20001 20004 28
16004 20001 20005 28
16005 20006 20007 28
16006 20006 20008 28
16007 20006 20009 28
16008 20006 20010 28
16009 20011 20012 28
16010 20011 20013 28
16011 20011 20014 28
16012 20011 20015 28
16013 20016 20017 28
16014 20016 20018 28
16015 20016 20019 28
16016 20016 20020 28
16017 20021 20022 28
16018 20021 20023 28
16019 20021 20024 28
16020 20021 20025 28
16021 20026 20027 28
16022 20026 20028 28
16023 20026 20029 28
16024 20026 20030 28
16025 20031 20032 28
16026 20031 20033 28
16027 20031 20034 28
16028 20031 20035 28
16029 20036 20037 28
16030 20036 20038 28
16031 20036 20039 28
16032 20036 20040 28
16033 20041 20042 28
16034 20041 20043 28
16035 20041 20044 28
16036 20041 20045 28
16037 20046 20047 28
16038 20046 20048 28
16039 20046 20049 28
16040 20046 20050 28
16041 20051 20052 28
16042 20051 20053 28
16043 20051 20054 28
16044 20051 20055 28
16045 20056 20057 28
16046 20056 20058 28
16047 20056 20059 28
16048 20056 20060 28
16049 20061 20062 28
16050 20061 20063 28
16051 20061 20064 28
16052 20061 20065 28
16053 20066 20067 28
16054 20066 20068 28
16055 20066 20069 28
16056 20066 20070 28
16057 20071 20072 28
16058 20071 20073 28
16059 20071 20074 28
16060 20071 20075 28
16061 20076 20077 28
16062 20076 20078 28
16063 20076 20079 28
16064 20076 20080 28
16065 20081 20082 28
16066 20081 20083 28
16067 20081 20084 28
16068 20081 20085 28
16069 20086 20087 28
16070 20086 20088 28
16071 20086 20089 28
16072 20086 20090 28
16073 20091 20092 28
16074 20091 20093 28
16075 20091 20094 28
16076 20091 20095 28
16077 20096 20097 28
16078 20096 20098 28
16079 20096 20099 28
16080 20096 20100 28
16081 20101 20102 28
16082 20101 20103 28
16083 20101 20104 28
16084 20101 20105 28
16085 20106 20107 28
16086 20106 20108 28
16087 20106 20109 28
16088 20106 20110 28
16089 20111 20112 28
16090 20111 20113 28
16091 20111 20114 28
16092 20111 20115 28
16093 20116 20117 28
16094 20116 20118 28
16095 20116 20119 28
16096 20116 20120 28
16097 20121 20122 28
16098 20121 20123 28
16099 20121 20124 28
16100 20121 20125 28
16101 20126 20127 28
16102 20126 20128 28
16103 20126 20129 28
16104 20126 20130 28
16105 20131 20132 28
16106 20131 20133 28
16107 20131 20134 28
16108 20131 20135 28
16109 20136 20137 28
16110 20136 20138 28
16111 20136 20139 28
16112 20136 20140 28
16113 20141 20142 28
16114 20141 20143 28
16115 20141 20144 28
16116 20141 20145 28
16117 20146 20147 28
16118 20146 20148 28
16119 20146 20149 28
16120 20146 20150 28
16121 20151 20152 28
16122 20151 20153 28
16123 20151 20154 28
16124 20151 20155 28
16125 20156 20157 28
16126 20156 20158 28
16127 20156 20159 28
16128 20156 20160 28
16129 20161 20162 28
16130 20161 20163 28
16131 20161 20164 28
16132 20161 20165 28
16133 20166 20167 28
16134 20166 20168 28
16135 20166 20169 28
16136 20166 20170 28
16137 20171 20172 28
16138 20171 20173 28
16139 20171 20174 28
16140 20171 20175 28
16141 20176 20177 28
16142 20176 20178 28
16143 20176 20179 28
16144 20176 20180 28
16145 20181 20182 28
16146 20181 20183 28
16147 20181 20184 28
16148 20181 20185 28
16149 20186 20187 28
16150 20186 20188 28
16151 20186 20189 28
16152 20186 20190 28
16153 20191 20192 28
16154 20191 20193 28
16155 20191 20194 28
16156 20191 20195 28
16157 20196 20197 28
16158 20196 20198 28
16159 20196 20199 28
16160 20196 20200 28
16161 20201 20202 28
16162 20201 20203 28
16163 20201 20204 28
16164 20201 20205 28
16165 20206 20207 28
16166 20206 20208 28
16167 20206 20209 28
16168 20206 20210 28
16169 20211 20212 28
16170 20211 20213 28
16171 20211 20214 28
16172 20211 20215 28
16173 20216 20217 28
16174 20216 20218 28
16175 20216 20219 28
16176 20216 20220 28
16177 20221 20222 28
16178 20221 20223 28
16179 20221 20224 28
16180 20221 20225 28
16181 20226 20227 28
16182 20226 20228 28
16183 20226 20229 28
16184 20226 20230 28
16185 20231 20232 28
16186 20231 20233 28
16187 20231 20234 28
16188 20231 20235 28
16189 20236 20237 28
16190 20236 20238 28
16191 20236 20239 28
16192 20236 20240 28
16193 20241 20242 28
16194 20241 20243 28
16195 20241 20244 28
16196 20241 20245 28
16197 20246 20247 28
16198 20246 20248 28
16199 20246 20249 28
16200 20246 20250 28
16201 20251 20252 28
16202 20251 20253 28
16203 20251 20254 28
16204 20251 20255 28
16205 20256 20257 28
16206 20256 20258 28
16207 20256 20259 28
16208 20256 20260 28
16209 20261 20262 28
16210 20261 20263 28
16211 20261 20264 28
16212 20261 20265 28
16213 20266 20267 28
16214 20266 20268 28
16215 20266 20269 28
16216 20266 20270 28
16217 20271 20272 28
16218 20271 20273 28
16219 20271 20274 28
16220 20271 20275 28
16221 20276 20277 28
16222 20276 20278 28
16223 20276 20279 28
16224 20276 20280 28
16225 20281 20282 28
16226 20281 20283 28
16227 20281 20284 28
16228 20281 20285 28
16229 20286 20287 28
16230 20286 20288 28
16231 20286 20289 28
16232 20286 20290 28
16233 20291 20292 28
16234 20291 20293 28
16235 20291 20294 28
16236 20291 20295 28
16237 20296 20297 28
16238 20296 20298 28
16239 20296 20299 28
16240 20296 20300 28
16241 20301 20302 28
16242 20301 20303 28
16243 20301 20304 28
16244 20301 20305 28
16245 20306 20307 28
16246 20306 20308 28
16247 20306 20309 28
16248 20306 20310 28
16249 20311 20312 28
16250 20311 20313 28
16251 20311 20314 28
16252 20311 20315 28
16253 20316 20317 28
16254 20316 20318 28
16255 20316 20319 28
16256 20316 20320 28
16257 20321 20322 28
16258 20321 20323 28
16259 20321 20324 28
16260 20321 20325 28
16261 20326 20327 28
16262 20326 20328 28
16263 20326 20329 28
16264 20326 20330 28
16265 20331 20332 28
16266 20331 20333 28
16267 20331 20334 28
16268 20331 20335 28
16269 20336 20337 28
16270 20336 20338 28
16271 20336 20339 28
16272 20336 20340 28
16273 20341 20342 28
16274 20341 20343 28
16275 20341 20344 28
16276 20341 20345 28
16277 20346 20347 28
16278 20346 20348 28
16279 20346 20349 28
16280 20346 20350 28
16281 20351 20352 28
16282 20351 20353 28
16283 20351 20354 28
16284 20351 20355 28
16285 20356 20357 28
16286 20356 20358 28
16287 20356 20359 28
16288 20356 20360 28
16289 20361 20362 28
16290 20361 20363 28
16291 20361 20364 28
16292 20361 20365 28
16293 20366 20367 28
16294 20366 20368 28
16295 20366 20369 28
16296 20366 20370 28
16297 20371 20372 28
16298 20371 20373 28
16299 20371 20374 28
16300 20371 20375 28
16301 20376 20377 28
16302 20376 20378 28
16303 20376 20379 28
16304 20376 20380 28
16305 20381 20382 28
16306 20381 20383 28
16307 20381 20384 28
16308 20381 20385 28
16309 20386 20387 28
16310 20386 20388 28
16311 20386 20389 28
16312 20386 20390 28
16313 20391 20392 28
16314 20391 20393 28
16315 20391 20394 28
16316 20391 20395 28
16317 20396 20397 28
16318 20396 20398 28
16319 20396 20399 28
16320 20396 20400 28
16321 20401 20402 28
16322 20401 20403 28
16323 20401 20404 28
16324 20401 20405 28
16325 20406 20407 28
16326 20406 20408 28
16327 20406 20409 28
16328 20406 20410 28
16329 20411 20412 28
16330 20411 20413 28
16331 20411 20414 28
16332 20411 20415 28
16333 20416 20417 28
16334 20416 20418 28
16335 20416 20419 28
16336 20416 20420 28
16337 20421 20422 28
16338 20421 20423 28
16339 20421 20424 28
16340 20421 20425 28
16341 20426 20427 28
16342 20426 20428 28
16343 20426 20429 28
16344 20426 20430 28
16345 20431 20432 28
16346 20431 20433 28
16347 20431 20434 28
16348 20431 20435 28
16349 20436 20437 28
16350 20436 20438 28
16351 20436 20439 28
16352 20436 20440 28
16353 20441 20442 28
16354 20441 20443 28
16355 20441 20444 28
16356 20441 20445 28
16357 20446 20447 28
16358 20446 20448 28
16359 20446 20449 28
16360 20446 20450 28
16361 20451 20452 28
16362 20451 20453 28
16363 20451 20454 28
16364 20451 20455 28
16365 20456 20457 28
16366 20456 20458 28
16367 20456 20459 28
16368 20456 20460 28
16369 20461 20462 28
16370 20461 20463 28
16371 20461 20464 28
16372 20461 20465 28
16373 20466 20467 28
16374 20466 20468 28
16375 20466 20469 28
16376 20466 20470 28
16377 20471 20472 28
16378 20471 20473 28
16379 20471 20474 28
16380 20471 20475 28
16381 20476 20477 28
16382 20476 20478 28
16383 20476 20479 28
16384 20476 20480 28
16385 20481 20482 28
16386 20481 20483 28
16387 20481 20484 28
16388 20481 20485 28
16389 20486 20487 28
16390 20486 20488 28
16391 20486 20489 28
16392 20486 20490 28
16393 20491 20492 28
16394 20491 20493 28
16395 20491 20494 28
16396 20491 20495 28
16397 20496 20497 28
16398 20496 20498 28
16399 20496 20499 28
16400 20496 20500 28
16401 20501 20502 28
16402 20501 20503 28
16403 20501 20504 28
16404 20501 20505 28
16405 20506 20507 28
16406 20506 20508 28
16407 20506 20509 28
16408 20506 20510 28
16409 20511 20512 28
16410 20511 20513 28
16411 20511 20514 28
16412 20511 20515 28
16413 20516 20517 28
16414 20516 20518 28
16415 20516 20519 28
16416 20516 20520 28
16417 20521 20522 28
16418 20521 20523 28
16419 20521 20524 28
16420 20521 20525 28
16421 20526 20527 28
16422 20526 20528 28
16423 20526 20529 28
16424 20526 20530 28
16425 20531 20532 28
16426 20531 20533 28
16427 20531 20534 28
16428 20531 20535 28
16429 20536 20537 28
16430 20536 20538 28
16431 20536 20539 28
16432 20536 20540 28
16433 20541 20542 28
16434 20541 20543 28
16435 20541 20544 28
16436 20541 20545 28
16437 20546 20547 28
16438 20546 20548 28
16439 20546 20549 28
16440 20546 20550 28
16441 20551 20552 28
16442 20551 20553 28
16443 20551 20554 28
16444 20551 20555 28
16445 20556 20557 28
16446 20556 20558 28
16447 20556 20559 28
16448 20556 20560 28
16449 20561 20562 28
16450 20561 20563 28
16451 20561 20564 28
16452 20561 20565 28
16453 20566 20567 28
16454 20566 20568 28
16455 20566 20569 28
16456 20566 20570 28
16457 20571 20572 28
16458 20571 20573 28
16459 20571 20574 28
16460 20571 20575 28
16461 20576 20577 28
16462 20576 20578 28
16463 20576 20579 28
16464 20576 20580 28
16465 20581 20582 28
16466 20581 20583 28
16467 20581 20584 28
16468 20581 20585 28
16469 20586 20587 28
16470 20586 20588 28
16471 20586 20589 28
16472 20586 20590 28
16473 20591 20592 28
16474 20591 20593 28
16475 20591 20594 28
16476 20591 20595 28
16477 20596 20597 28
16478 20596 20598 28
16479 20596 20599 28
16480 20596 20600 28
16481 20601 20602 28
16482 20601 20603 28
16483 20601 20604 28
16484 20601 20605 28
16485 20606 20607 28
16486 20606 20608 28
16487 20606 20609 28
16488 20606 20610 28
16489 20611 20612 28
16490 20611 20613 28
16491 20611 20614 28
16492 20611 20615 28
16493 20616 20617 28
16494 20616 20618 28
16495 20616 20619 28
16496 20616 20620 28
16497 20621 20622 28
16498 20621 20623 28
16499 20621 20624 28
16500 20621 20625 28
16501 20626 20627 28
16502 20626 20628 28
16503 20626 20629 28
16504 20626 20630 28
16505 20631 20632 28
16506 20631 20633 28
16507 20631 20634 28
16508 20631 20635 28
16509 20636 20637 28
16510 20636 20638 28
16511 20636 20639 28
16512 20636 20640 28
16513 20641 20642 28
16514 20641 20643 28
16515 20641 20644 28
16516 20641 20645 28
16517 20646 20647 28
16518 20646 20648 28
16519 20646 20649 28
16520 20646 20650 28
16521 20651 20652 28
16522 20651 20653 28
16523 20651 20654 28
16524 20651 20655 28
16525 20656 20657 28
16526 20656 20658 28
16527 20656 20659 28
16528 20656 20660 28
16529 20661 20662 28
16530 20661 20663 28
16531 20661 20664 28
16532 20661 20665 28
16533 20666 20667 28
16534 20666 20668 28
16535 20666 20669 28
16536 20666 20670 28
16537 20671 20672 28
16538 20671 20673 28
16539 20671 20674 28
16540 20671 20675 28
16541 20676 20677 28
16542 20676 20678 28
16543 20676 20679 28
16544 20676 20680 28
16545 20681 20682 28
16546 20681 20683 28
16547 20681 20684 28
16548 20681 20685 28
16549 20686 20687 28
16550 20686 20688 28
16551 20686 20689 28
16552 20686 20690 28
16553 20691 20692 28
16554 20691 20693 28
16555 20691 20694 28
16556 20691 20695 28
16557 20696 20697 28
16558 20696 20698 28
16559 20696 20699 28
16560 20696 20700 28
16561 20701 20702 28
16562 20701 20703 28
16563 20701 20704 28
16564 20701 20705 28
16565 20706 20707 28
16566 20706 20708 28
16567 20706 20709 28
16568 20706 20710 28
16569 20711 20712 28
16570 20711 20713 28
16571 20711 20714 28
16572 20711 20715 28
16573 20716 20717 28
16574 20716 20718 28
16575 20716 20719 28
16576 20716 20720 28
16577 20721 20722 28
16578 20721 20723 28
16579 20721 20724 28
16580 20721 20725 28
16581 20726 20727 28
16582 20726 20728 28
16583 20726 20729 28
16584 20726 20730 28
16585 20731 20732 28
16586 20731 20733 28
16587 20731 20734 28
16588 20731 20735 28
16589 20736 20737 28
16590 20736 20738 28
16591 20736 20739 28
16592 20736 20740 28
16593 20741 20742 28
16594 20741 20743 28
16595 20741 20744 28
16596 20741 20745 28
16597 20746 20747 28
16598 20746 20748 28
16599 20746 20749 28
16600 20746 20750 28
16601 20751 20752 28
16602 20751 20753 28
16603 20751 20754 28
16604 20751 20755 28
16605 20756 20757 28
16606 20756 20758 28
16607 20756 20759 28
16608 20756 20760 28
16609 20761 20762 28
16610 20761 20763 28
16611 20761 20764 28
16612 20761 20765 28
16613 20766 20767 28
16614 20766 20768 28
16615 20766 20769 28
16616 20766 20770 28
16617 20771 20772 28
16618 20771 20773 28
16619 20771 20774 28
16620 20771 20775 28
16621 20776 20777 28
16622 20776 20778 28
16623 20776 20779 28
16624 20776 20780 28
16625 20781 20782 28
16626 20781 20783 28
16627 20781 20784 28
16628 20781 20785 28
16629 20786 20787 28
16630 20786 20788 28
16631 20786 20789 28
16632 20786 20790 28
16633 20791 20792 28
16634 20791 20793 28
16635 20791 20794 28
16636 20791 20795 28
16637 20796 20797 28
16638 20796 20798 28
16639 20796 20799 28
16640 20796 20800 28
16641 20801 20802 28
16642 20801 20803 28
16643 20801 20804 28
16644 20801 20805 28
16645 20806 20807 28
16646 20806 20808 28
16647 20806 20809 28
16648 20806 20810 28
16649 20811 20812 28
16650 20811 20813 28
16651 20811 20814 28
16652 20811 20815 28
16653 20816 20817 28
16654 20816 20818 28
16655 20816 20819 28
16656 20816 20820 28
16657 20821 20822 28
16658 20821 20823 28
16659 20821 20824 28
16660 20821 20825 28
16661 20826 20827 28
16662 20826 20828 28
16663 20826 20829 28
16664 20826 20830 28
16665 20831 20832 28
16666 20831 20833 28
16667 20831 20834 28
16668 20831 20835 28
16669 20836 20837 28
16670 20836 20838 28
16671 20836 20839 28
16672 20836 20840 28
16673 20841 20842 28
16674 20841 20843 28
16675 20841 20844 28
16676 20841 20845 28
16677 20846 20847 28
16678 20846 20848 28
16679 20846 20849 28
16680 20846 20850 28
16681 20851 20852 28
16682 20851 20853 28
16683 20851 20854 28
16684 20851 20855 28
16685 20856 20857 28
16686 20856 20858 28
16687 20856 20859 28
16688 20856 20860 28
16689 20861 20862 28
16690 20861 20863 28
16691 20861 20864 28
16692 20861 20865 28
16693 20866 20867 28
16694 20866 20868 28
16695 20866 20869 28
16696 20866 20870 28
16697 20871 20872 28
16698 20871 20873 28
16699 20871 20874 28
16700 20871 20875 28
16701 20876 20877 28
16702 20876 20878 28
16703 20876 20879 28
16704 20876 20880 28
16705 20881 20882 28
16706 20881 20883 28
16707 20881 20884 28
16708 20881 20885 28
16709 20886 20887 28
16710 20886 20888 28
16711 20886 20889 28
16712 20886 20890 28
16713 20891 20892 28
16714 20891 20893 28
16715 20891 20894 28
16716 20891 20895 28
16717 20896 20897 28
16718 20896 20898 28
16719 20896 20899 28
16720 20896 20900 28
16721 20901 20902 28
16722 20901 20903 28
16723 20901 20904 28
16724 20901 20905 28
16725 20906 20907 28
16726 20906 20908 28
16727 20906 20909 28
16728 20906 20910 28
16729 20911 20912 28
16730 20911 20913 28
16731 20911 20914 28
16732 20911 20915 28
16733 20916 20917 28
16734 20916 20918 28
16735 20916 20919 28
16736 20916 20920 28
16737 20921 20922 28
16738 20921 20923 28
16739 20921 20924 28
16740 20921 20925 28
16741 20926 20927 28
16742 20926 20928 28
16743 20926 20929 28
16744 20926 20930 28
16745 20931 20932 28
16746 20931 20933 28
16747 20931 20934 28
16748 20931 20935 28
16749 20936 20937 28
16750 20936 20938 28
16751 20936 20939 28
16752 20936 20940 28
16753 20941 20942 28
16754 20941 20943 28
16755 20941 20944 28
16756 20941 20945 28
16757 20946 20947 28
16758 20946 20948 28
16759 20946 20949 28
16760 20946 20950 28
16761 20951 20952 28
16762 20951 20953 28
16763 20951 20954 28
16764 20951 20955 28
16765 20956 20957 28
16766 20956 20958 28
16767 20956 20959 28
16768 20956 20960 28
16769 20961 20962 28
16770 20961 20963 28
16771 20961 20964 28
16772 20961 20965 28
16773 20966 20967 28
16774 20966 20968 28
16775 20966 20969 28
16776 20966 20970 28
16777 20971 20972 28
16778 20971 20973 28
16779 20971 20974 28
16780 20971 20975 28
16781 20976 20977 28
16782 20976 20978 28
16783 20976 20979 28
16784 20976 20980 28
16785 20981 20982 28
16786 20981 20983 28
16787 20981 20984 28
16788 20981 20985 28
16789 20986 20987 28
16790 20986 20988 28
16791 20986 20989 28
16792 20986 20990 28
16793 20991 20992 28
16794 20991 20993 28
16795 20991 20994 28
16796 20991 20995 28
16797 20996 20997 28
16798 20996 20998 28
16799 20996 20999 28
16800 20996 21000 28
16801 21001 21002 28
16802 21001 21003 28
16803 21001 21004 28
16804 21001 21005 28
16805 21006 21007 28
16806 21006 21008 28
16807 21006 21009 28
16808 21006 21010 28
16809 21011 21012 28
16810 21011 21013 28
16811 21011 21014 28
16812 21011 21015 28
16813 21016 21017 28
16814 21016 21018 28
16815 21016 21019 28
16816 21016 21020 28
16817 21021 21022 28
16818 21021 21023 28
16819 21021 21024 28
16820 21021 21025 28
16821 21026 21027 28
16822 21026 21028 28
16823 21026 21029 28
16824 21026 21030 28
16825 21031 21032 28
16826 21031 21033 28
16827 21031 21034 28
16828 21031 21035 28
16829 21036 21037 28
16830 21036 21038 28
16831 21036 21039 28
16832 21036 21040 28
16833 21041 21042 28
16834 21041 21043 28
16835 21041 21044 28
16836 21041 21045 28
16837 21046 21047 28
16838 21046 21048 28
16839 21046 21049 28
16840 21046 21050 28
16841 21051 21052 28
16842 21051 21053 28
16843 21051 21054 28
16844 21051 21055 28
16845 21056 21057 28
16846 21056 21058 28
16847 21056 21059 28
16848 21056 21060 28
16849 21061 21062 28
16850 21061 21063 28
16851 21061 21064 28
16852 21061 21065 28
16853 21066 21067 28
16854 21066 21068 28
16855 21066 21069 28
16856 21066 21070 28
16857 21071 21072 28
16858 21071 21073 28
16859 21071 21074 28
16860 21071 21075 28
16861 21076 21077 28
16862 21076 21078 28
16863 21076 21079 28
16864 21076 21080 28
16865 21081 21082 28
16866 21081 21083 28
16867 21081 21084 28
16868 21081 21085 28
16869 21086 21087 28
16870 21086 21088 28
16871 21086 21089 28
16872 21086 21090 28
16873 21091 21092 28
16874 21091 21093 28
16875 21091 21094 28
16876 21091 21095 28
16877 21096 21097 28
16878 21096 21098 28
16879 21096 21099 28
16880 21096 21100 28
16881 21101 21102 28
16882 21101 21103 28
16883 21101 21104 28
16884 21101 21105 28
16885 21106 21107 28
16886 21106 21108 28
16887 21106 21109 28
16888 21106 21110 28
16889 21111 21112 28
16890 21111 21113 28
16891 21111 21114 28
16892 21111 21115 28
16893 21116 21117 28
16894 21116 21118 28
16895 21116 21119 28
16896 21116 21120 28
16897 21121 21122 28
16898 21121 21123 28
16899 21121 21124 28
16900 21121 21125 28
16901 21126 21127 28
16902 21126 21128 28
16903 21126 21129 28
16904 21126 21130 28
16905 21131 21132 28
16906 21131 21133 28
16907 21131 21134 28
16908 21131 21135 28
16909 21136 21137 28
16910 21136 21138 28
16911 21136 21139 28
16912 21136 21140 28
16913 21141 21142 28
16914 21141 21143 28
16915 21141 21144 28
16916 21141 21145 28
16917 21146 21147 28
16918 21146 21148 28
16919 21146 21149 28
16920 21146 21150 28
16921 21151 21152 28
16922 21151 21153 28
16923 21151 21154 28
16924 21151 21155 28
16925 21156 21157 28
16926 21156 21158 28
16927 21156 21159 28
16928 21156 21160 28
16929 21161 21162 28
16930 21161 21163 28
16931 21161 21164 28
16932 21161 21165 28
16933 21166 21167 28
16934 21166 21168 28
16935 21166 21169 28
16936 21166 21170 28
16937 21171 21172 28
16938 21171 21173 28
16939 21171 21174 28
16940 21171 21175 28
16941 21176 21177 28
16942 21176 21178 28
16943 21176 21179 28
16944 21176 21180 28
16945 21181 21182 28
16946 21181 21183 28
16947 21181 21184 28
16948 21181 21185 28
16949 21186 21187 28
16950 21186 21188 28
16951 21186 21189 28
16952 21186 21190 28
16953 21191 21192 28
16954 21191 21193 28
16955 21191 21194 28
16956 21191 21195 28
16957 21196 21197 28
16958 21196 21198 28
16959 21196 21199 28
16960 21196 21200 28
16961 21201 21202 28
16962 21201 21203 28
16963 21201 21204 28
16964 21201 21205 28
16965 21206 21207 28
16966 21206 21208 28
16967 21206 21209 28
16968 21206 21210 28
16969 21211 21212 28
16970 21211 21213 28
16971 21211 21214 28
16972 21211 21215 28
16973 21216 21217 28
16974 21216 21218 28
16975 21216 21219 28
16976 21216 21220 28
16977 21221 21222 28
16978 21221 21223 28
16979 21221 21224 28
16980 21221 21225 28
16981 21226 21227 28
16982 21226 21228 28
16983 21226 21229 28
16984 21226 21230 28
16985 21231 21232 28
16986 21231 21233 28
16987 21231 21234 28
16988 21231 21235 28
16989 21236 21237 28
16990 21236 21238 28
16991 21236 21239 28
16992 21236 21240 28
16993 21241 21242 28
16994 21241 21243 28
16995 21241 21244 28
16996 21241 21245 28
16997 21246 21247 28
16998 21246 21248 28
16999 21246 21249 28
17000 21246 21250 28
17001 21251 21252 28
17002 21251 21253 28
17003 21251 21254 28
17004 21251 21255 28
17005 21256 21257 28
17006 21256 21258 28
17007 21256 21259 28
17008 21256 21260 28
17009 21261 21262 28
17010 21261 21263 28
17011 21261 21264 28
17012 21261 21265 28
17013 21266 21267 28
17014 21266 21268 28
17015 21266 21269 28
17016 21266 21270 28
17017 21271 21272 28
17018 21271 21273 28
17019 21271 21274 28
17020 21271 21275 28
17021 21276 21277 28
17022 21276 21278 28
17023 21276 21279 28
17024 21276 21280 28
17025 21281 21282 28
17026 21281 21283 28
17027 21281 21284 28
17028 21281 21285 28
17029 21286 21287 28
17030 21286 21288 28
17031 21286 21289 28
17032 21286 21290 28
17033 21291 21292 28
17034 21291 21293 28
17035 21291 21294 28
17036 21291 21295 28
17037 21296 21297 28
17038 21296 21298 28
17039 21296 21299 28
17040 21296 21300 28
17041 21301 21302 28
17042 21301 21303 28
17043 21301 21304 28
17044 21301 21305 28
17045 21306 21307 28
17046 21306 21308 28
17047 21306 21309 28
17048 21306 21310 28
17049 21311 21312 28
17050 21311 21313 28
17051 21311 21314 28
17052 21311 21315 28
17053 21316 21317 28
17054 21316 21318 28
17055 21316 21319 28
17056 21316 21320 28
17057 21321 21322 28
17058 21321 21323 28
17059 21321 21324 28
17060 21321 21325 28
17061 21326 21327 28
17062 21326 21328 28
17063 21326 21329 28
17064 21326 21330 28
17065 21331 21332 28
17066 21331 21333 28
17067 21331 21334 28
17068 21331 21335 28
17069 21336 21337 28
17070 21336 21338 28
17071 21336 21339 28
17072 21336 21340 28
17073 21341 21342 28
17074 21341 21343 28
17075 21341 21344 28
17076 21341 21345 28
17077 21346 21347 28
17078 21346 21348 28
17079 21346 21349 28
17080 21346 21350 28
17081 21351 21352 28
17082 21351 21353 28
17083 21351 21354 28
17084 21351 21355 28
17085 21356 21357 28
17086 21356 21358 28
17087 21356 21359 28
17088 21356 21360 28
17089 21361 21362 28
17090 21361 21363 28
17091 21361 21364 28
17092 21361 21365 28
17093 21366 21367 28
17094 21366 21368 28
17095 21366 21369 28
17096 21366 21370 28
17097 21371 21372 28
17098 21371 21373 28
17099 21371 21374 28
17100 21371 21375 28
17101 21376 21377 28
17102 21376 21378 28
17103 21376 21379 28
17104 21376 21380 28
17105 21381 21382 28
17106 21381 21383 28
17107 21381 21384 28
17108 21381 21385 28
17109 21386 21387 28
17110 21386 21388 28
17111 21386 21389 28
17112 21386 21390 28
17113 21391 21392 28
17114 21391 21393 28
17115 21391 21394 28
17116 21391 21395 28
17117 21396 21397 28
17118 21396 21398 28
17119 21396 21399 28
17120 21396 21400 28
17121 21401 21402 28
17122 21401 21403 28
17123 21401 21404 28
17124 21401 21405 28
17125 21406 21407 28
17126 21406 21408 28
17127 21406 21409 28
17128 21406 21410 28
17129 21411 21412 28
17130 21411 21413 28
17131 21411 21414 28
17132 21411 21415 28
17133 21416 21417 28
17134 21416 21418 28
17135 21416 21419 28
17136 21416 21420 28
17137 21421 21422 28
17138 21421 21423 28
17139 21421 21424 28
17140 21421 21425 28
17141 21426 21427 28
17142 21426 21428 28
17143 21426 21429 28
17144 21426 21430 28
17145 21431 21432 28
17146 21431 21433 28
17147 21431 21434 28
17148 21431 21435 28
17149 21436 21437 28
17150 21436 21438 28
17151 21436 21439 28
17152 21436 21440 28
17153 21441 21442 28
17154 21441 21443 28
17155 21441 21444 28
17156 21441 21445 28
17157 21446 21447 28
17158 21446 21448 28
17159 21446 21449 28
17160 21446 21450 28
17161 21451 21452 28
17162 21451 21453 28
17163 21451 21454 28
17164 21451 21455 28
17165 21456 21457 28
17166 21456 21458 28
17167 21456 21459 28
17168 21456 21460 28
17169 21461 21462 28
17170 21461 21463 28
17171 21461 21464 28
17172 21461 21465 28
17173 21466 21467 28
17174 21466 21468 28
17175 21466 21469 28
17176 21466 21470 28
17177 21471 21472 28
17178 21471 21473 28
17179 21471 21474 28
17180 21471 21475 28
17181 21476 21477 28
17182 21476 21478 28
17183 21476 21479 28
17184 21476 21480 28
17185 21481 21482 28
17186 21481 21483 28
17187 21481 21484 28
17188 21481 21485 28
17189 21486 21487 28
17190 21486 21488 28
17191 21486 21489 28
17192 21486 21490 28
17193 21491 21492 28
17194 21491 21493 28
17195 21491 21494 28
17196 21491 21495 28
17197 21496 21497 28
17198 21496 21498 28
17199 21496 21499 28
17200 21496 21500 28
17201 21501 21502 28
17202 21501 21503 28
17203 21501 21504 28
17204 21501 21505 28
17205 21506 21507 28
17206 21506 21508 28
17207 21506 21509 28
17208 21506 21510 28
17209 21511 21512 28
17210 21511 21513 28
17211 21511 21514 28
17212 21511 21515 28
17213 21516 21517 28
17214 21516 21518 28
17215 21516 21519 28
17216 21516 21520 28
17217 21521 21522 28
17218 21521 21523 28
17219 21521 21524 28
17220 21521 21525 28
17221 21526 21527 28
17222 21526 21528 28
17223 21526 21529 28
17224 21526 21530 28
17225 21531 21532 28
17226 21531 21533 28
17227 21531 21534 28
17228 21531 21535 28
17229 21536 21537 28
17230 21536 21538 28
17231 21536 21539 28
17232 21536 21540 28
17233 21541 21542 28
17234 21541 21543 28
17235 21541 21544 28
17236 21541 21545 28
17237 21546 21547 28
17238 21546 21548 28
17239 21546 21549 28
17240 21546 21550 28
17241 21551 21552 28
17242 21551 21553 28
17243 21551 21554 28
17244 21551 21555 28
17245 21556 21557 28
17246 21556 21558 28
17247 21556 21559 28
17248 21556 21560 28
17249 21561 21562 28
17250 21561 21563 28
17251 21561 21564 28
17252 21561 21565 28
17253 21566 21567 28
17254 21566 21568 28
17255 21566 21569 28
17256 21566 21570 28
17257 21571 21572 28
17258 21571 21573 28
17259 21571 21574 28
17260 21571 21575 28
17261 21576 21577 28
17262 21576 21578 28
17263 21576 21579 28
17264 21576 21580 28
17265 21581 21582 28
17266 21581 21583 28
17267 21581 21584 28
17268 21581 21585 28
17269 21586 21587 28
17270 21586 21588 28
17271 21586 21589 28
17272 21586 21590 28
17273 21591 21592 28
17274 21591 21593 28
17275 21591 21594 28
17276 21591 21595 28
17277 21596 21597 28
17278 21596 21598 28
17279 21596 21599 28
17280 21596 21600 28
17281 21601 21602 28
17282 21601 21603 28
17283 21601 21604 28
17284 21601 21605 28
17285 21606 21607 28
17286 21606 21608 28
17287 21606 21609 28
17288 21606 21610 28
17289 21611 21612 28
17290 21611 21613 28
17291 21611 21614 28
17292 21611 21615 28
17293 21616 21617 28
17294 21616 21618 28
17295 21616 21619 28
17296 21616 21620 28
17297 21621 21622 28
17298 21621 21623 28
17299 21621 21624 28
17300 21621 21625 28
17301 21626 21627 28
17302 21626 21628 28
17303 21626 21629 28
17304 21626 21630 28
17305 21631 21632 28
17306 21631 21633 28
17307 21631 21634 28
17308 21631 21635 28
17309 21636 21637 28
17310 21636 21638 28
17311 21636 21639 28
17312 21636 21640 28
17313 21641 21642 28
17314 21641 21643 28
17315 21641 21644 28
17316 21641 21645 28
17317 21646 21647 28
17318 21646 21648 28
17319 21646 21649 28
17320 21646 21650 28
17321 21651 21652 28
17322 21651 21653 28
17323 21651 21654 28
17324 21651 21655 28
17325 21656 21657 28
17326 21656 21658 28
17327 21656 21659 28
17328 21656 21660 28
17329 21661 21662 28
17330 21661 21663 28
17331 21661 21664 28
17332 21661 21665 28
17333 21666 21667 28
17334 21666 21668 28
17335 21666 21669 28
17336 21666 21670 28
17337 21671 21672 28
17338 21671 21673 28
17339 21671 21674 28
17340 21671 21675 28
17341 21676 21677 28
17342 21676 21678 28
17343 21676 21679 28
17344 21676 21680 28
17345 21681 21682 28
17346 21681 21683 28
17347 21681 21684 28
17348 21681 21685 28
17349 21686 21687 28
17350 21686 21688 28
17351 21686 21689 28
17352 21686 21690 28
17353 21691 21692 28
17354 21691 21693 28
17355 21691 21694 28
17356 21691 21695 28
17357 21696 21697 28
17358 21696 21698 28
17359 21696 21699 28
17360 21696 21700 28
17361 21701 21702 28
17362 21701 21703 28
17363 21701 21704 28
17364 21701 21705 28
17365 21706 21707 28
17366 21706 21708 28
17367 21706 21709 28
17368 21706 21710 28
17369 21711 21712 28
17370 21711 21713 28
17371 21711 21714 28
17372 21711 21715 28
17373 21716 21717 28
17374 21716 21718 28
17375 21716 21719 28
17376 21716 21720 28
17377 21721 21722 28
17378 21721 21723 28
17379 21721 21724 28
17380 21721 21725 28
17381 21726 21727 28
17382 21726 21728 28
17383 21726 21729 28
17384 21726 21730 28
17385 21731 21732 28
17386 21731 21733 28
17387 21731 21734 28
17388 21731 21735 28
17389 21736 21737 28
17390 21736 21738 28
17391 21736 21739 28
17392 21736 21740 28
17393 21741 21742 28
17394 21741 21743 28
17395 21741 21744 28
17396 21741 21745 28
17397 21746 21747 28
17398 21746 21748 28
17399 21746 21749 28
17400 21746 21750 28
17401 21751 21752 28
17402 21751 21753 28
17403 21751 21754 28
17404 21751 21755 28
17405 21756 21757 28
17406 21756 21758 28
17407 21756 21759 28
17408 21756 21760 28
17409 21761 21762 28
17410 21761 21763 28
17411 21761 21764 28
17412 21761 21765 28
17413 21766 21767 28
17414 21766 21768 28
17415 21766 21769 28
17416 21766 21770 28
17417 21771 21772 28
17418 21771 21773 28
17419 21771 21774 28
17420 21771 21775 28
17421 21776 21777 28
17422 21776 21778 28
17423 21776 21779 28
17424 21776 21780 28
17425 21781 21782 28
17426 21781 21783 28
17427 21781 21784 28
17428 21781 21785 28
17429 21786 21787 28
17430 21786 21788 28
17431 21786 21789 28
17432 21786 21790 28
17433 21791 21792 28
17434 21791 21793 28
17435 21791 21794 28
17436 21791 21795 28
17437 21796 21797 28
17438 21796 21798 28
17439 21796 21799 28
17440 21796 21800 28
17441 21801 21802 28
17442 21801 21803 28
17443 21801 21804 28
17444 21801 21805 28
17445 21806 21807 28
17446 21806 21808 28
17447 21806 21809 28
17448 21806 21810 28
17449 21811 21812 28
17450 21811 21813 28
17451 21811 21814 28
17452 21811 21815 28
17453 21816 21817 28
17454 21816 21818 28
17455 21816 21819 28
17456 21816 21820 28
17457 21821 21822 28
17458 21821 21823 28
17459 21821 21824 28
17460 21821 21825 28
17461 21826 21827 28
17462 21826 21828 28
17463 21826 21829 28
17464 21826 21830 28
17465 21831 21832 28
17466 21831 21833 28
17467 21831 21834 28
17468 21831 21835 28
17469 21836 21837 28
17470 21836 21838 28
17471 21836 21839 28
17472 21836 21840 28
17473 21841 21842 28
17474 21841 21843 28
17475 21841 21844 28
17476 21841 21845 28
17477 21846 21847 28
17478 21846 21848 28
17479 21846 21849 28
17480 21846 21850 28
17481 21851 21852 28
17482 21851 21853 28
17483 21851 21854 28
17484 21851 21855 28
17485 21856 21857 28
17486 21856 21858 28
17487 21856 21859 28
17488 21856 21860 28
17489 21861 21862 28
17490 21861 21863 28
17491 21861 21864 28
17492 21861 21865 28
17493 21866 21867 28
17494 21866 21868 28
17495 21866 21869 28
17496 21866 21870 28
17497 21871 21872 28
17498 21871 21873 28
17499 21871 21874 28
17500 21871 21875 28
17501 21876 21877 28
17502 21876 21878 28
17503 21876 21879 28
17504 21876 21880 28
17505 21881 21882 28
17506 21881 21883 28
17507 21881 21884 28
17508 21881 21885 28
17509 21886 21887 28
17510 21886 21888 28
17511 21886 21889 28
17512 21886 21890 28
17513 21891 21892 28
17514 21891 21893 28
17515 21891 21894 28
17516 21891 21895 28
17517 21896 21897 28
17518 21896 21898 28
17519 21896 21899 28
17520 21896 21900 28
17521 21901 21902 28
17522 21901 21903 28
17523 21901 21904 28
17524 21901 21905 28
17525 21906 21907 28
17526 21906 21908 28
17527 21906 21909 28
17528 21906 21910 28
17529 21911 21912 28
17530 21911 21913 28
17531 21911 21914 28
17532 21911 21915 28
17533 21916 21917 28
17534 21916 21918 28
17535 21916 21919 28
17536 21916 21920 28
17537 21921 21922 28
17538 21921 21923 28
17539 21921 21924 28
17540 21921 21925 28
17541 21926 21927 28
17542 21926 21928 28
17543 21926 21929 28
17544 21926 21930 28
17545 21931 21932 28
17546 21931 21933 28
17547 21931 21934 28
17548 21931 21935 28
17549 21936 21937 28
17550 21936 21938 28
17551 21936 21939 28
17552 21936 21940 28
17553 21941 21942 28
17554 21941 21943 28
17555 21941 21944 28
17556 21941 21945 28
17557 21946 21947 28
17558 21946 21948 28
17559 21946 21949 28
17560 21946 21950 28
17561 21951 21952 28
17562 21951 21953 28
17563 21951 21954 28
17564 21951 21955 28
17565 21956 21957 28
17566 21956 21958 28
17567 21956 21959 28
17568 21956 21960 28
17569 21961 21962 28
17570 21961 21963 28
17571 21961 21964 28
17572 21961 21965 28
17573 21966 21967 28
17574 21966 21968 28
17575 21966 21969 28
17576 21966 21970 28
17577 21971 21972 28
17578 21971 21973 28
17579 21971 21974 28
17580 21971 21975 28
17581 21976 21977 28
17582 21976 21978 28
17583 21976 21979 28
17584 21976 21980 28
17585 21981 21982 28
17586 21981 21983 28
17587 21981 21984 28
17588 21981 21985 28
17589 21986 21987 28
17590 21986 21988 28
17591 21986 21989 28
17592 21986 21990 28
17593 21991 21992 28
17594 21991 21993 28
17595 21991 21994 28
17596 21991 21995 28
17597 21996 21997 28
17598 21996 21998 28
17599 21996 21999 28
17600 21996 22000 28
17601 22001 22002 28
17602 22001 22003 28
17603 22001 22004 28
17604 22001 22005 28
17605 22006 22007 28
17606 22006 22008 28
17607 22006 22009 28
17608 22006 22010 28
17609 22011 22012 28
17610 22011 22013 28
17611 22011 22014 28
17612 22011 22015 28
17613 22016 22017 28
17614 22016 22018 28
17615 22016 22019 28
17616 22016 22020 28
17617 22021 22022 28
17618 22021 22023 28
17619 22021 22024 28
17620 22021 22025 28
17621 22026 22027 28
17622 22026 22028 28
17623 22026 22029 28
17624 22026 22030 28
17625 22031 22032 28
17626 22031 22033 28
17627 22031 22034 28
17628 22031 22035 28
17629 22036 22037 28
17630 22036 22038 28
17631 22036 22039 28
17632 22036 22040 28
17633 22041 22042 28
17634 22041 22043 28
17635 22041 22044 28
17636 22041 22045 28
17637 22046 22047 28
17638 22046 22048 28
17639 22046 22049 28
17640 22046 22050 28
17641 22051 22052 28
17642 22051 22053 28
17643 22051 22054 28
17644 22051 22055 28
17645 22056 22057 28
17646 22056 22058 28
17647 22056 22059 28
17648 22056 22060 28
17649 22061 22062 28
17650 22061 22063 28
17651 22061 22064 28
17652 22061 22065 28
17653 22066 22067 28
17654 22066 22068 28
17655 22066 22069 28
17656 22066 22070 28
17657 22071 22072 28
17658 22071 22073 28
17659 22071 22074 28
17660 22071 22075 28
17661 22076 22077 28
17662 22076 22078 28
17663 22076 22079 28
17664 22076 22080 28
17665 22081 22082 28
17666 22081 22083 28
17667 22081 22084 28
17668 22081 22085 28
17669 22086 22087 28
17670 22086 22088 28
17671 22086 22089 28
17672 22086 22090 28
17673 22091 22092 28
17674 22091 22093 28
17675 22091 22094 28
17676 22091 22095 28
17677 22096 22097 28
17678 22096 22098 28
17679 22096 22099 28
17680 22096 22100 28
17681 22101 22102 28
17682 22101 22103 28
17683 22101 22104 28
17684 22101 22105 28
17685 22106 22107 28
17686 22106 22108 28
17687 22106 22109 28
17688 22106 22110 28
17689 22111 22112 28
17690 22111 22113 28
17691 22111 22114 28
17692 22111 22115 28
17693 22116 22117 28
17694 22116 22118 28
17695 22116 22119 28
17696 22116 22120 28
17697 22121 22122 28
17698 22121 22123 28
17699 22121 22124 28
17700 22121 22125 28
17701 22126 22127 28
17702 22126 22128 28
17703 22126 22129 28
17704 22126 22130 28
17705 22131 22132 28
17706 22131 22133 28
17707 22131 22134 28
17708 22131 22135 28
17709 22136 22137 28
17710 22136 22138 28
17711 22136 22139 28
17712 22136 22140 28
17713 22141 22142 28
17714 22141 22143 28
17715 22141 22144 28
17716 22141 22145 28
17717 22146 22147 28
17718 22146 22148 28
17719 22146 22149 28
17720 22146 22150 28
17721 22151 22152 28
17722 22151 22153 28
17723 22151 22154 28
17724 22151 22155 28
17725 22156 22157 28
17726 22156 22158 28
17727 22156 22159 28
17728 22156 22160 28
17729 22161 22162 28
17730 22161 22163 28
17731 22161 22164 28
17732 22161 22165 28
17733 22166 22167 28
17734 22166 22168 28
17735 22166 22169 28
17736 22166 22170 28
17737 22171 22172 28
17738 22171 22173 28
17739 22171 22174 28
17740 22171 22175 28
17741 22176 22177 28
17742 22176 22178 28
17743 22176 22179 28
17744 22176 22180 28
17745 22181 22182 28
17746 22181 22183 28
17747 22181 22184 28
17748 22181 22185 28
17749 22186 22187 28
17750 22186 22188 28
17751 22186 22189 28
17752 22186 22190 28
17753 22191 22192 28
17754 22191 22193 28
17755 22191 22194 28
17756 22191 22195 28
17757 22196 22197 28
17758 22196 22198 28
17759 22196 22199 28
17760 22196 22200 28
17761 22201 22202 28
17762 22201 22203 28
17763 22201 22204 28
17764 22201 22205 28
17765 22206 22207 28
17766 22206 22208 28
17767 22206 22209 28
17768 22206 22210 28
17769 22211 22212 28
17770 22211 22213 28
17771 22211 22214 28
17772 22211 22215 28
17773 22216 22217 28
17774 22216 22218 28
17775 22216 22219 28
17776 22216 22220 28
17777 22221 22222 28
17778 22221 22223 28
17779 22221 22224 28
17780 22221 22225 28
17781 22226 22227 28
17782 22226 22228 28
17783 22226 22229 28
17784 22226 22230 28
17785 22231 22232 28
17786 22231 22233 28
17787 22231 22234 28
17788 22231 22235 28
17789 22236 22237 28
17790 22236 22238 28
17791 22236 22239 28
17792 22236 22240 28
17793 22241 22242 28
17794 22241 22243 28
17795 22241 22244 28
17796 22241 22245 28
17797 22246 22247 28
17798 22246 22248 28
17799 22246 22249 28
17800 22246 22250 28
17801 22251 22252 28
17802 22251 22253 28
17803 22251 22254 28
17804 22251 22255 28
17805 22256 22257 28
17806 22256 22258 28
17807 22256 22259 28
17808 22256 22260 28
17809 22261 22262 28
17810 22261 22263 28
17811 22261 22264 28
17812 22261 22265 28
17813 22266 22267 28
17814 22266 22268 28
17815 22266 22269 28
17816 22266 22270 28
17817 22271 22272 28
17818 22271 22273 28
17819 22271 22274 28
17820 22271 22275 28
17821 22276 22277 28
17822 22276 22278 28
17823 22276 22279 28
17824 22276 22280 28
17825 22281 22282 28
17826 22281 22283 28
17827 22281 22284 28
17828 22281 22285 28
17829 22286 22287 28
17830 22286 22288 28
17831 22286 22289 28
17832 22286 22290 28
17833 22291 22292 28
17834 22291 22293 28
17835 22291 22294 28
17836 22291 22295 28
17837 22296 22297 28
17838 22296 22298 28
17839 22296 22299 28
17840 22296 22300 28
17841 22301 22302 28
17842 22301 22303 28
17843 22301 22304 28
17844 22301 22305 28
17845 22306 22307 28
17846 22306 22308 28
17847 22306 22309 28
17848 22306 22310 28
17849 22311 22312 28
17850 22311 22313 28
17851 22311 22314 28
17852 22311 22315 28
17853 22316 22317 28
17854 22316 22318 28
17855 22316 22319 28
17856 22316 22320 28
17857 22321 22322 28
17858 22321 22323 28
17859 22321 22324 28
17860 22321 22325 28
17861 22326 22327 28
17862 22326 22328 28
17863 22326 22329 28
17864 22326 22330 28
17865 22331 22332 28
17866 22331 22333 28
17867 22331 22334 28
17868 22331 22335 28
17869 22336 22337 28
17870 22336 22338 28
17871 22336 22339 28
17872 22336 22340 28
17873 22341 22342 28
17874 22341 22343 28
17875 22341 22344 28
17876 22341 22345 28
17877 22346 22347 28
17878 22346 22348 28
17879 22346 22349 28
17880 22346 22350 28
17881 22351 22352 28
17882 22351 22353 28
17883 22351 22354 28
17884 22351 22355 28
17885 22356 22357 28
17886 22356 22358 28
17887 22356 22359 28
17888 22356 22360 28
17889 22361 22362 28
17890 22361 22363 28
17891 22361 22364 28
17892 22361 22365 28
17893 22366 22367 28
17894 22366 22368 28
17895 22366 22369 28
17896 22366 22370 28
17897 22371 22372 28
17898 22371 22373 28
17899 22371 22374 28
17900 22371 22375 28
17901 22376 22377 28
17902 22376 22378 28
17903 22376 22379 28
17904 22376 22380 28
17905 22381 22382 28
17906 22381 22383 28
17907 22381 22384 28
17908 22381 22385 28
17909 22386 22387 28
17910 22386 22388 28
17911 22386 22389 28
17912 22386 22390 28
17913 22391 22392 28
17914 22391 22393 28
17915 22391 22394 28
17916 22391 22395 28
17917 22396 22397 28
17918 22396 22398 28
17919 22396 22399 28
17920 22396 22400 28
17921 22401 22402 28
17922 22401 22403 28
17923 22401 22404 28
17924 22401 22405 28
17925 22406 22407 28
17926 22406 22408 28
17927 22406 22409 28
17928 22406 22410 28
17929 22411 22412 28
17930 22411 22413 28
17931 22411 22414 28
17932 22411 22415 28
17933 22416 22417 28
17934 22416 22418 28
17935 22416 22419 28
17936 22416 22420 28
17937 22421 22422 28
17938 22421 22423 28
17939 22421 22424 28
17940 22421 22425 28
17941 22426 22427 28
17942 22426 22428 28
17943 22426 22429 28
17944 22426 22430 28
17945 22431 22432 28
17946 22431 22433 28
17947 22431 22434 28
17948 22431 22435 28
17949 22436 22437 28
17950 22436 22438 28
17951 22436 22439 28
17952 22436 22440 28
17953 22441 22442 28
17954 22441 22443 28
17955 22441 22444 28
17956 22441 22445 28
17957 22446 22447 28
17958 22446 22448 28
17959 22446 22449 28
17960 22446 22450 28
17961 22451 22452 28
17962 22451 22453 28
17963 22451 22454 28
17964 22451 22455 28
17965 22456 22457 28
17966 22456 22458 28
17967 22456 22459 28
17968 22456 22460 28
17969 22461 22462 28
17970 22461 22463 28
17971 22461 22464 28
17972 22461 22465 28
17973 22466 22467 28
17974 22466 22468 28
17975 22466 22469 28
17976 22466 22470 28
17977 22471 22472 28
17978 22471 22473 28
17979 22471 22474 28
17980 22471 22475 28
17981 22476 22477 28
17982 22476 22478 28
17983 22476 22479 28
17984 22476 22480 28
17985 22481 22482 28
17986 22481 22483 28
17987 22481 22484 28
17988 22481 22485 28
17989 22486 22487 28
17990 22486 22488 28
17991 22486 22489 28
17992 22486 22490 28
17993 22491 22492 28
17994 22491 22493 28
17995 22491 22494 28
17996 22491 22495 28
17997 22496 22497 28
17998 22496 22498 28
17999 22496 22499 28
18000 22496 22500 28
18001 22501 22502 28
18002 22501 22503 28
18003 22501 22504 28
18004 22501 22505 28
18005 22506 22507 28
18006 22506 22508 28
18007 22506 22509 28
18008 22506 22510 28
18009 22511 22512 28
18010 22511 22513 28
18011 22511 22514 28
18012 22511 22515 28
18013 22516 22517 28
18014 22516 22518 28
18015 22516 22519 28
18016 22516 22520 28
18017 22521 22522 28
18018 22521 22523 28
18019 22521 22524 28
18020 22521 22525 28
18021 22526 22527 28
18022 22526 22528 28
18023 22526 22529 28
18024 22526 22530 28
18025 22531 22532 28
18026 22531 22533 28
18027 22531 22534 28
18028 22531 22535 28
18029 22536 22537 28
18030 22536 22538 28
18031 22536 22539 28
18032 22536 22540 28
18033 22541 22542 28
18034 22541 22543 28
18035 22541 22544 28
18036 22541 22545 28
18037 22546 22547 28
18038 22546 22548 28
18039 22546 22549 28
18040 22546 22550 28
18041 22551 22552 28
18042 22551 22553 28
18043 22551 22554 28
18044 22551 22555 28
18045 22556 22557 28
18046 22556 22558 28
18047 22556 22559 28
18048 22556 22560 28
18049 22561 22562 28
18050 22561 22563 28
18051 22561 22564 28
18052 22561 22565 28
18053 22566 22567 28
18054 22566 22568 28
18055 22566 22569 28
18056 22566 22570 28
18057 22571 22572 28
18058 22571 22573 28
18059 22571 22574 28
18060 22571 22575 28
18061 22576 22577 28
18062 22576 22578 28
18063 22576 22579 28
18064 22576 22580 28
18065 22581 22582 28
18066 22581 22583 28
18067 22581 22584 28
18068 22581 22585 28
18069 22586 22587 28
18070 22586 22588 28
18071 22586 22589 28
18072 22586 22590 28
18073 22591 22592 28
18074 22591 22593 28
18075 22591 22594 28
18076 22591 22595 28
18077 22596 22597 28
18078 22596 22598 28
18079 22596 22599 28
18080 22596 22600 28
18081 22601 22602 28
18082 22601 22603 28
18083 22601 22604 28
18084 22601 22605 28
18085 22606 22607 28
18086 22606 22608 28
18087 22606 22609 28
18088 22606 22610 28
18089 22611 22612 28
18090 22611 22613 28
18091 22611 22614 28
18092 22611 22615 28
18093 22616 22617 28
18094 22616 22618 28
18095 22616 22619 28
18096 22616 22620 28
18097 22621 22622 28
18098 22621 22623 28
18099 22621 22624 28
18100 22621 22625 28
18101 22626 22627 28
18102 22626 22628 28
18103 22626 22629 28
18104 22626 22630 28
18105 22631 22632 28
18106 22631 22633 28
18107 22631 22634 28
18108 22631 22635 28
18109 22636 22637 28
18110 22636 22638 28
18111 22636 22639 28
18112 22636 22640 28
18113 22641 22642 28
18114 22641 22643 28
18115 22641 22644 28
18116 22641 22645 28
18117 22646 22647 28
18118 22646 22648 28
18119 22646 22649 28
18120 22646 22650 28
18121 22651 22652 28
18122 22651 22653 28
18123 22651 22654 28
18124 22651 22655 28
18125 22656 22657 28
18126 22656 22658 28
18127 22656 22659 28
18128 22656 22660 28
18129 22661 22662 28
18130 22661 22663 28
18131 22661 22664 28
18132 22661 22665 28
18133 22666 22667 28
18134 22666 22668 28
18135 22666 22669 28
18136 22666 22670 28
18137 22671 22672 28
18138 22671 22673 28
18139 22671 22674 28
18140 22671 22675 28
18141 22676 22677 28
18142 22676 22678 28
18143 22676 22679 28
18144 22676 22680 28
18145 22681 22682 28
18146 22681 22683 28
18147 22681 22684 28
18148 22681 22685 28
18149 22686 22687 28
18150 22686 22688 28
18151 22686 22689 28
18152 22686 22690 28
18153 22691 22692 28
18154 22691 22693 28
18155 22691 22694 28
18156 22691 22695 28
18157 22696 22697 28
18158 22696 22698 28
18159 22696 22699 28
18160 22696 22700 28
18161 22701 22702 28
18162 22701 22703 28
18163 22701 22704 28
18164 22701 22705 28
18165 22706 22707 28
18166 22706 22708 28
18167 22706 22709 28
18168 22706 22710 28
18169 22711 22712 28
18170 22711 22713 28
18171 22711 22714 28
18172 22711 22715 28
18173 22716 22717 28
18174 22716 22718 28
18175 22716 22719 28
18176 22716 22720 28
18177 22721 22722 28
18178 22721 22723 28
18179 22721 22724 28
18180 22721 22725 28
18181 22726 22727 28
18182 22726 22728 28
18183 22726 22729 28
18184 22726 22730 28
18185 22731 22732 28
18186 22731 22733 28
18187 22731 22734 28
18188 22731 22735 28
18189 22736 22737 28
18190 22736 22738 28
18191 22736 22739 28
18192 22736 22740 28
18193 22741 22742 28
18194 22741 22743 28
18195 22741 22744 28
18196 22741 22745 28
18197 22746 22747 28
18198 22746 22748 28
18199 22746 22749 28
18200 22746 22750 28
18201 22751 22752 28
18202 22751 22753 28
18203 22751 22754 28
18204 22751 22755 28
18205 22756 22757 28
18206 22756 22758 28
18207 22756 22759 28
18208 22756 22760 28
18209 22761 22762 28
18210 22761 22763 28
18211 22761 22764 28
18212 22761 22765 28
18213 22766 22767 28
18214 22766 22768 28
18215 22766 22769 28
18216 22766 22770 28
18217 22771 22772 28
18218 22771 22773 28
18219 22771 22774 28
18220 22771 22775 28
18221 22776 22777 28
18222 22776 22778 28
18223 22776 22779 28
18224 22776 22780 28
18225 22781 22782 28
18226 22781 22783 28
18227 22781 22784 28
18228 22781 22785 28
18229 22786 22787 28
18230 22786 22788 28
18231 22786 22789 28
18232 22786 22790 28
18233 22791 22792 28
18234 22791 22793 28
18235 22791 22794 28
18236 22791 22795 28
18237 22796 22797 28
18238 22796 22798 28
18239 22796 22799 28
18240 22796 22800 28
18241 22801 22802 28
18242 22801 22803 28
18243 22801 22804 28
18244 22801 22805 28
18245 22806 22807 28
18246 22806 22808 28
18247 22806 22809 28
18248 22806 22810 28
18249 22811 22812 28
18250 22811 22813 28
18251 22811 22814 28
18252 22811 22815 28
18253 22816 22817 28
18254 22816 22818 28
18255 22816 22819 28
18256 22816 22820 28
18257 22821 22822 28
18258 22821 22823 28
18259 22821 22824 28
18260 22821 22825 28
18261 22826 22827 28
18262 22826 22828 28
18263 22826 22829 28
18264 22826 22830 28
18265 22831 22832 28
18266 22831 22833 28
18267 22831 22834 28
18268 22831 22835 28
18269 22836 22837 28
18270 22836 22838 28
18271 22836 22839 28
18272 22836 22840 28
18273 22841 22842 28
18274 22841 22843 28
18275 22841 22844 28
18276 22841 22845 28
18277 22846 22847 28
18278 22846 22848 28
18279 22846 22849 28
18280 22846 22850 28
18281 22851 22852 28
18282 22851 22853 28
18283 22851 22854 28
18284 22851 22855 28
18285 22856 22857 28
18286 22856 22858 28
18287 22856 22859 28
18288 22856 22860 28
18289 22861 22862 28
18290 22861 22863 28
18291 22861 22864 28
18292 22861 22865 28
18293 22866 22867 28
18294 22866 22868 28
18295 22866 22869 28
18296 22866 22870 28
18297 22871 22872 28
18298 22871 22873 28
18299 22871 22874 28
18300 22871 22875 28
18301 22876 22877 28
18302 22876 22878 28
18303 22876 22879 28
18304 22876 22880 28
18305 22881 22882 28
18306 22881 22883 28
18307 22881 22884 28
18308 22881 22885 28
18309 22886 22887 28
18310 22886 22888 28
18311 22886 22889 28
18312 22886 22890 28
18313 22891 22892 28
18314 22891 22893 28
18315 22891 22894 28
18316 22891 22895 28
18317 22896 22897 28
18318 22896 22898 28
18319 22896 22899 28
18320 22896 22900 28
18321 22901 22902 28
18322 22901 22903 28
18323 22901 22904 28
18324 22901 22905 28
18325 22906 22907 28
18326 22906 22908 28
18327 22906 22909 28
18328 22906 22910 28
18329 22911 22912 28
18330 22911 22913 28
18331 22911 22914 28
18332 22911 22915 28
18333 22916 22917 28
18334 22916 22918 28
18335 22916 22919 28
18336 22916 22920 28
18337 22921 22922 28
18338 22921 22923 28
18339 22921 22924 28
18340 22921 22925 28
18341 22926 22927 28
18342 22926 22928 28
18343 22926 22929 28
18344 22926 22930 28
18345 22931 22932 28
18346 22931 22933 28
18347 22931 22934 28
18348 22931 22935 28
18349 22936 22937 28
18350 22936 22938 28
18351 22936 22939 28
18352 22936 22940 28
18353 22941 22942 28
18354 22941 22943 28
18355 22941 22944 28
18356 22941 22945 28
18357 22946 22947 28
18358 22946 22948 28
18359 22946 22949 28
18360 22946 22950 28
18361 22951 22952 28
18362 22951 22953 28
18363 22951 22954 28
18364 22951 22955 28
18365 22956 22957 28
18366 22956 22958 28
18367 22956 22959 28
18368 22956 22960 28
18369 22961 22962 28
18370 22961 22963 28
18371 22961 22964 28
18372 22961 22965 28
18373 22966 22967 28
18374 22966 22968 28
18375 22966 22969 28
18376 22966 22970 28
18377 22971 22972 28
18378 22971 22973 28
18379 22971 22974 28
18380 22971 22975 28
18381 22976 22977 28
18382 22976 22978 28
18383 22976 22979 28
18384 22976 22980 28
18385 22981 22982 28
18386 22981 22983 28
18387 22981 22984 28
18388 22981 22985 28
18389 22986 22987 28
18390 22986 22988 28
18391 22986 22989 28
18392 22986 22990 28
18393 22991 22992 28
18394 22991 22993 28
18395 22991 22994 28
18396 22991 22995 28
18397 22996 22997 28
18398 22996 22998 28
18399 22996 22999 28
18400 22996 23000 28
18401 23001 23002 28
18402 23001 23003 28
18403 23001 23004 28
18404 23001 23005 28
18405 23006 23007 28
18406 23006 23008 28
18407 23006 23009 28
18408 23006 23010 28
18409 23011 23012 28
18410 23011 23013 28
18411 23011 23014 28
18412 23011 23015 28
18413 23016 23017 28
18414 23016 23018 28
18415 23016 23019 28
18416 23016 23020 28
18417 23021 23022 28
18418 23021 23023 28
18419 23021 23024 28
18420 23021 23025 28
18421 23026 23027 28
18422 23026 23028 28
18423 23026 23029 28
18424 23026 23030 28
18425 23031 23032 28
18426 23031 23033 28
18427 23031 23034 28
18428 23031 23035 28
18429 23036 23037 28
18430 23036 23038 28
18431 23036 23039 28
18432 23036 23040 28
18433 23041 23042 28
18434 23041 23043 28
18435 23041 23044 28
18436 23041 23045 28
18437 23046 23047 28
18438 23046 23048 28
18439 23046 23049 28
18440 23046 23050 28
18441 23051 23052 28
18442 23051 23053 28
18443 23051 23054 28
18444 23051 23055 28
18445 23056 23057 28
18446 23056 23058 28
18447 23056 23059 28
18448 23056 23060 28
18449 23061 23062 28
18450 23061 23063 28
18451 23061 23064 28
18452 23061 23065 28
18453 23066 23067 28
18454 23066 23068 28
18455 23066 23069 28
18456 23066 23070 28
18457 23071 23072 28
18458 23071 23073 28
18459 23071 23074 28
18460 23071 23075 28
18461 23076 23077 28
18462 23076 23078 28
18463 23076 23079 28
18464 23076 23080 28
18465 23081 23082 28
18466 23081 23083 28
18467 23081 23084 28
18468 23081 23085 28
18469 23086 23087 28
18470 23086 23088 28
18471 23086 23089 28
18472 23086 23090 28
18473 23091 23092 28
18474 23091 23093 28
18475 23091 23094 28
18476 23091 23095 28
18477 23096 23097 28
18478 23096 23098 28
18479 23096 23099 28
18480 23096 23100 28
18481 23101 23102 28
18482 23101 23103 28
18483 23101 23104 28
18484 23101 23105 28
18485 23106 23107 28
18486 23106 23108 28
18487 23106 23109 28
18488 23106 23110 28
18489 23111 23112 28
18490 23111 23113 28
18491 23111 23114 28
18492 23111 23115 28
18493 23116 23117 28
18494 23116 23118 28
18495 23116 23119 28
18496 23116 23120 28
18497 23121 23122 28
18498 23121 23123 28
18499 23121 23124 28
18500 23121 23125 28
18501 23126 23127 28
18502 23126 23128 28
18503 23126 23129 28
18504 23126 23130 28
18505 23131 23132 28
18506 23131 23133 28
18507 23131 23134 28
18508 23131 23135 28
18509 23136 23137 28
18510 23136 23138 28
18511 23136 23139 28
18512 23136 23140 28
18513 23141 23142 28
18514 23141 23143 28
18515 23141 23144 28
18516 23141 23145 28
18517 23146 23147 28
18518 23146 23148 28
18519 23146 23149 28
18520 23146 23150 28
18521 23151 23152 28
18522 23151 23153 28
18523 23151 23154 28
18524 23151 23155 28
18525 23156 23157 28
18526 23156 23158 28
18527 23156 23159 28
18528 23156 23160 28
18529 23161 23162 28
18530 23161 23163 28
18531 23161 23164 28
18532 23161 23165 28
18533 23166 23167 28
18534 23166 23168 28
18535 23166 23169 28
18536 23166 23170 28
18537 23171 23172 28
18538 23171 23173 28
18539 23171 23174 28
18540 23171 23175 28
18541 23176 23177 28
18542 23176 23178 28
18543 23176 23179 28
18544 23176 23180 28
18545 23181 23182 28
18546 23181 23183 28
18547 23181 23184 28
18548 23181 23185 28
18549 23186 23187 28
18550 23186 23188 28
18551 23186 23189 28
18552 23186 23190 28
18553 23191 23192 28
18554 23191 23193 28
18555 23191 23194 28
18556 23191 23195 28
18557 23196 23197 28
18558 23196 23198 28
18559 23196 23199 28
18560 23196 23200 28
18561 23201 23202 28
18562 23201 23203 28
18563 23201 23204 28
18564 23201 23205 28
18565 23206 23207 28
18566 23206 23208 28
18567 23206 23209 28
18568 23206 23210 28
18569 23211 23212 28
18570 23211 23213 28
18571 23211 23214 28
18572 23211 23215 28
18573 23216 23217 28
18574 23216 23218 28
18575 23216 23219 28
18576 23216 23220 28
18577 23221 23222 28
18578 23221 23223 28
18579 23221 23224 28
18580 23221 23225 28
18581 23226 23227 28
18582 23226 23228 28
18583 23226 23229 28
18584 23226 23230 28
18585 23231 23232 28
18586 23231 23233 28
18587 23231 23234 28
18588 23231 23235 28
18589 23236 23237 28
18590 23236 23238 28
18591 23236 23239 28
18592 23236 23240 28
18593 23241 23242 28
18594 23241 23243 28
18595 23241 23244 28
18596 23241 23245 28
18597 23246 23247 28
18598 23246 23248 28
18599 23246 23249 28
18600 23246 23250 28
18601 23251 23252 28
18602 23251 23253 28
18603 23251 23254 28
18604 23251 23255 28
18605 23256 23257 28
18606 23256 23258 28
18607 23256 23259 28
18608 23256 23260 28
18609 23261 23262 28
18610 23261 23263 28
18611 23261 23264 28
18612 23261 23265 28
18613 23266 23267 28
18614 23266 23268 28
18615 23266 23269 28
18616 23266 23270 28
18617 23271 23272 28
18618 23271 23273 28
18619 23271 23274 28
18620 23271 23275 28
18621 23276 23277 28
18622 23276 23278 28
18623 23276 23279 28
18624 23276 23280 28
18625 23281 23282 28
18626 23281 23283 28
18627 23281 23284 28
18628 23281 23285 28
18629 23286 23287 28
18630 23286 23288 28
18631 23286 23289 28
18632 23286 23290 28
18633 23291 23292 28
18634 23291 23293 28
18635 23291 23294 28
18636 23291 23295 28
18637 23296 23297 28
18638 23296 23298 28
18639 23296 23299 28
18640 23296 23300 28
18641 23301 23302 28
18642 23301 23303 28
18643 23301 23304 28
18644 23301 23305 28
18645 23306 23307 28
18646 23306 23308 28
18647 23306 23309 28
18648 23306 23310 28
18649 23311 23312 28
18650 23311 23313 28
18651 23311 23314 28
18652 23311 23315 28
18653 23316 23317 28
18654 23316 23318 28
18655 23316 23319 28
18656 23316 23320 28
18657 23321 23322 28
18658 23321 23323 28
18659 23321 23324 28
18660 23321 23325 28
18661 23326 23327 28
18662 23326 23328 28
18663 23326 23329 28
18664 23326 23330 28
18665 23331 23332 28
18666 23331 23333 28
18667 23331 23334 28
18668 23331 23335 28
18669 23336 23337 28
18670 23336 23338 28
18671 23336 23339 28
18672 23336 23340 28
18673 23341 23342 28
18674 23341 23343 28
18675 23341 23344 28
18676 23341 23345 28
18677 23346 23347 28
18678 23346 23348 28
18679 23346 23349 28
18680 23346 23350 28
18681 23351 23352 28
18682 23351 23353 28
18683 23351 23354 28
18684 23351 23355 28
18685 23356 23357 28
18686 23356 23358 28
18687 23356 23359 28
18688 23356 23360 28
18689 23361 23362 28
18690 23361 23363 28
18691 23361 23364 28
18692 23361 23365 28
18693 23366 23367 28
18694 23366 23368 28
18695 23366 23369 28
18696 23366 23370 28
18697 23371 23372 28
18698 23371 23373 28
18699 23371 23374 28
18700 23371 23375 28
18701 23376 23377 28
18702 23376 23378 28
18703 23376 23379 28
18704 23376 23380 28
18705 23381 23382 28
18706 23381 23383 28
18707 23381 23384 28
18708 23381 23385 28
18709 23386 23387 28
18710 23386 23388 28
18711 23386 23389 28
18712 23386 23390 28
18713 23391 23392 28
18714 23391 23393 28
18715 23391 23394 28
18716 23391 23395 28
18717 23396 23397 28
18718 23396 23398 28
18719 23396 23399 28
18720 23396 23400 28
18721 23401 23402 28
18722 23401 23403 28
18723 23401 23404 28
18724 23401 23405 28
18725 23406 23407 28
18726 23406 23408 28
18727 23406 23409 28
18728 23406 23410 28
18729 23411 23412 28
18730 23411 23413 28
18731 23411 23414 28
18732 23411 23415 28
18733 23416 23417 28
18734 23416 23418 28
18735 23416 23419 28
18736 23416 23420 28
18737 23421 23422 28
18738 23421 23423 28
18739 23421 23424 28
18740 23421 23425 28
18741 23426 23427 28
18742 23426 23428 28
18743 23426 23429 28
18744 23426 23430 28
18745 23431 23432 28
18746 23431 23433 28
18747 23431 23434 28
18748 23431 23435 28
18749 23436 23437 28
18750 23436 23438 28
18751 23436 23439 28
18752 23436 23440 28
18753 23441 23442 28
18754 23441 23443 28
18755 23441 23444 28
18756 23441 23445 28
18757 23446 23447 28
18758 23446 23448 28
18759 23446 23449 28
18760 23446 23450 28
18761 23451 23452 28
18762 23451 23453 28
18763 23451 23454 28
18764 23451 23455 28
18765 23456 23457 28
18766 23456 23458 28
18767 23456 23459 28
18768 23456 23460 28
18769 23461 23462 28
18770 23461 23463 28
18771 23461 23464 28
18772 23461 23465 28
18773 23466 23467 28
18774 23466 23468 28
18775 23466 23469 28
18776 23466 23470 28
18777 23471 23472 28
18778 23471 23473 28
18779 23471 23474 28
18780 23471 23475 28
18781 23476 23477 28
18782 23476 23478 28
18783 23476 23479 28
18784 23476 23480 28
18785 23481 23482 28
18786 23481 23483 28
18787 23481 23484 28
18788 23481 23485 28
18789 23486 23487 28
18790 23486 23488 28
18791 23486 23489 28
18792 23486 23490 28
18793 23491 23492 28
18794 23491 23493 28
18795 23491 23494 28
18796 23491 23495 28
18797 23496 23497 28
18798 23496 23498 28
18799 23496 23499 28
18800 23496 23500 28
18801 23501 23502 28
18802 23501 23503 28
18803 23501 23504 28
18804 23501 23505 28
18805 23506 23507 28
18806 23506 23508 28
18807 23506 23509 28
18808 23506 23510 28
18809 23511 23512 28
18810 23511 23513 28
18811 23511 23514 28
18812 23511 23515 28
18813 23516 23517 28
18814 23516 23518 28
18815 23516 23519 28
18816 23516 23520 28
18817 23521 23522 28
18818 23521 23523 28
18819 23521 23524 28
18820 23521 23525 28
18821 23526 23527 28
18822 23526 23528 28
18823 23526 23529 28
18824 23526 23530 28
18825 23531 23532 28
18826 23531 23533 28
18827 23531 23534 28
18828 23531 23535 28
18829 23536 23537 28
18830 23536 23538 28
18831 23536 23539 28
18832 23536 23540 28
18833 23541 23542 28
18834 23541 23543 28
18835 23541 23544 28
18836 23541 23545 28
18837 23546 23547 28
18838 23546 23548 28
18839 23546 23549 28
18840 23546 23550 28
18841 23551 23552 28
18842 23551 23553 28
18843 23551 23554 28
18844 23551 23555 28
18845 23556 23557 28
18846 23556 23558 28
18847 23556 23559 28
18848 23556 23560 28
18849 23561 23562 28
18850 23561 23563 28
18851 23561 23564 28
18852 23561 23565 28
18853 23566 23567 28
18854 23566 23568 28
18855 23566 23569 28
18856 23566 23570 28
18857 23571 23572 28
18858 23571 23573 28
18859 23571 23574 28
18860 23571 23575 28
18861 23576 23577 28
18862 23576 23578 28
18863 23576 23579 28
18864 23576 23580 28
18865 23581 23582 28
18866 23581 23583 28
18867 23581 23584 28
18868 23581 23585 28
18869 23586 23587 28
18870 23586 23588 28
18871 23586 23589 28
18872 23586 23590 28
18873 23591 23592 28
18874 23591 23593 28
18875 23591 23594 28
18876 23591 23595 28
18877 23596 23597 28
18878 23596 23598 28
18879 23596 23599 28
18880 23596 23600 28
18881 23601 23602 28
18882 23601 23603 28
18883 23601 23604 28
18884 23601 23605 28
18885 23606 23607 28
18886 23606 23608 28
18887 23606 23609 28
18888 23606 23610 28
18889 23611 23612 28
18890 23611 23613 28
18891 23611 23614 28
18892 23611 23615 28
18893 23616 23617 28
18894 23616 23618 28
18895 23616 23619 28
18896 23616 23620 28
18897 23621 23622 28
18898 23621 23623 28
18899 23621 23624 28
18900 23621 23625 28
18901 23626 23627 28
18902 23626 23628 28
18903 23626 23629 28
18904 23626 23630 28
18905 23631 23632 28
18906 23631 23633 28
18907 23631 23634 28
18908 23631 23635 28
18909 23636 23637 28
18910 23636 23638 28
18911 23636 23639 28
18912 23636 23640 28
18913 23641 23642 28
18914 23641 23643 28
18915 23641 23644 28
18916 23641 23645 28
18917 23646 23647 28
18918 23646 23648 28
18919 23646 23649 28
18920 23646 23650 28
18921 23651 23652 28
18922 23651 23653 28
18923 23651 23654 28
18924 23651 23655 28
18925 23656 23657 28
18926 23656 23658 28
18927 23656 23659 28
18928 23656 23660 28
18929 23661 23662 28
18930 23661 23663 28
18931 23661 23664 28
18932 23661 23665 28
18933 23666 23667 28
18934 23666 23668 28
18935 23666 23669 28
18936 23666 23670 28
18937 23671 23672 28
18938 23671 23673 28
18939 23671 23674 28
18940 23671 23675 28
18941 23676 23677 28
18942 23676 23678 28
18943 23676 23679 28
18944 23676 23680 28
18945 23681 23682 28
18946 23681 23683 28
18947 23681 23684 28
18948 23681 23685 28
18949 23686 23687 28
18950 23686 23688 28
18951 23686 23689 28
18952 23686 23690 28
18953 23691 23692 28
18954 23691 23693 28
18955 23691 23694 28
18956 23691 23695 28
18957 23696 23697 28
18958 23696 23698 28
18959 23696 23699 28
18960 23696 23700 28
18961 23701 23702 28
18962 23701 23703 28
18963 23701 23704 28
18964 23701 23705 28
18965 23706 23707 28
18966 23706 23708 28
18967 23706 23709 28
18968 23706 23710 28
18969 23711 23712 28
18970 23711 23713 28
18971 23711 23714 28
18972 23711 23715 28
18973 23716 23717 28
18974 23716 23718 28
18975 23716 23719 28
18976 23716 23720 28
18977 23721 23722 28
18978 23721 23723 28
18979 23721 23724 28
18980 23721 23725 28
18981 23726 23727 28
18982 23726 23728 28
18983 23726 23729 28
18984 23726 23730 28
18985 23731 23732 28
18986 23731 23733 28
18987 23731 23734 28
18988 23731 23735 28
18989 23736 23737 28
18990 23736 23738 28
18991 23736 23739 28
18992 23736 23740 28
18993 23741 23742 28
18994 23741 23743 28
18995 23741 23744 28
18996 23741 23745 28
18997 23746 23747 28
18998 23746 23748 28
18999 23746 23749 28
19000 23746 23750 28
19001 23751 23752 28
19002 23751 23753 28
19003 23751 23754 28
19004 23751 23755 28
19005 23756 23757 28
19006 23756 23758 28
19007 23756 23759 28
19008 23756 23760 28
19009 23761 23762 28
19010 23761 23763 28
19011 23761 23764 28
19012 23761 23765 28
19013 23766 23767 28
19014 23766 23768 28
19015 23766 23769 28
19016 23766 23770 28
19017 23771 23772 28
19018 23771 23773 28
19019 23771 23774 28
19020 23771 23775 28
19021 23776 23777 28
19022 23776 23778 28
19023 23776 23779 28
19024 23776 23780 28
19025 23781 23782 28
19026 23781 23783 28
19027 23781 23784 28
19028 23781 23785 28
19029 23786 23787 28
19030 23786 23788 28
19031 23786 23789 28
19032 23786 23790 28
19033 23791 23792 28
19034 23791 23793 28
19035 23791 23794 28
19036 23791 23795 28
19037 23796 23797 28
19038 23796 23798 28
19039 23796 23799 28
19040 23796 23800 28
19041 23801 23802 28
19042 23801 23803 28
19043 23801 23804 28
19044 23801 23805 28
19045 23806 23807 28
19046 23806 23808 28
19047 23806 23809 28
19048 23806 23810 28
19049 23811 23812 28
19050 23811 23813 28
19051 23811 23814 28
19052 23811 23815 28
19053 23816 23817 28
19054 23816 23818 28
19055 23816 23819 28
19056 23816 23820 28
19057 23821 23822 28
19058 23821 23823 28
19059 23821 23824 28
19060 23821 23825 28
19061 23826 23827 28
19062 23826 23828 28
19063 23826 23829 28
19064 23826 23830 28
19065 23831 23832 28
19066 23831 23833 28
19067 23831 23834 28
19068 23831 23835 28
19069 23836 23837 28
19070 23836 23838 28
19071 23836 23839 28
19072 23836 23840 28
19073 23841 23842 28
19074 23841 23843 28
19075 23841 23844 28
19076 23841 23845 28
19077 23846 23847 28
19078 23846 23848 28
19079 23846 23849 28
19080 23846 23850 28
19081 23851 23852 28
19082 23851 23853 28
19083 23851 23854 28
19084 23851 23855 28
19085 23856 23857 28
19086 23856 23858 28
19087 23856 23859 28
19088 23856 23860 28
19089 23861 23862 28
19090 23861 23863 28
19091 23861 23864 28
19092 23861 23865 28
19093 23866 23867 28
19094 23866 23868 28
19095 23866 23869 28
19096 23866 23870 28
19097 23871 23872 28
19098 23871 23873 28
19099 23871 23874 28
19100 23871 23875 28
19101 23876 23877 28
19102 23876 23878 28
19103 23876 23879 28
19104 23876 23880 28
19105 23881 23882 28
19106 23881 23883 28
19107 23881 23884 28
19108 23881 23885 28
19109 23886 23887 28
19110 23886 23888 28
19111 23886 23889 28
19112 23886 23890 28
19113 23891 23892 28
19114 23891 23893 28
19115 23891 23894 28
19116 23891 23895 28
19117 23896 23897 28
19118 23896 23898 28
19119 23896 23899 28
19120 23896 23900 28
19121 23901 23902 28
19122 23901 23903 28
19123 23901 23904 28
19124 23901 23905 28
19125 23906 23907 28
19126 23906 23908 28
19127 23906 23909 28
19128 23906 23910 28
19129 23911 23912 28
19130 23911 23913 28
19131 23911 23914 28
19132 23911 23915 28
19133 23916 23917 28
19134 23916 23918 28
19135 23916 23919 28
19136 23916 23920 28
19137 23921 23922 28
19138 23921 23923 28
19139 23921 23924 28
19140 23921 23925 28
19141 23926 23927 28
19142 23926 23928 28
19143 23926 23929 28
19144 23926 23930 28
19145 23931 23932 28
19146 23931 23933 28
19147 23931 23934 28
19148 23931 23935 28
19149 23936 23937 28
19150 23936 23938 28
19151 23936 23939 28
19152 23936 23940 28
19153 23941 23942 28
19154 23941 23943 28
19155 23941 23944 28
19156 23941 23945 28
19157 23946 23947 28
19158 23946 23948 28
19159 23946 23949 28
19160 23946 23950 28
19161 23951 23952 28
19162 23951 23953 28
19163 23951 23954 28
19164 23951 23955 28
19165 23956 23957 28
19166 23956 23958 28
19167 23956 23959 28
19168 23956 23960 28
19169 23961 23962 28
19170 23961 23963 28
19171 23961 23964 28
19172 23961 23965 28
19173 23966 23967 28
19174 23966 23968 28
19175 23966 23969 28
19176 23966 23970 28
19177 23971 23972 28
19178 23971 23973 28
19179 23971 23974 28
19180 23971 23975 28
19181 23976 23977 28
19182 23976 23978 28
19183 23976 23979 28
19184 23976 23980 28
19185 23981 23982 28
19186 23981 23983 28
19187 23981 23984 28
19188 23981 23985 28
19189 23986 23987 28
19190 23986 23988 28
19191 23986 23989 28
19192 23986 23990 28
19193 23991 23992 28
19194 23991 23993 28
19195 23991 23994 28
19196 23991 23995 28
19197 23996 23997 28
19198 23996 23998 28
19199 23996 23999 28
19200 23996 24000 28
19201 24001 24002 28
19202 24001 24003 28
19203 24001 24004 28
19204 24001 24005 28
19205 24006 24007 28
19206 24006 24008 28
19207 24006 24009 28
19208 24006 24010 28
19209 24011 24012 28
19210 24011 24013 28
19211 24011 24014 28
19212 24011 24015 28
19213 24016 24017 28
19214 24016 24018 28
19215 24016 24019 28
19216 24016 24020 28
19217 24021 24022 28
19218 24021 24023 28
19219 24021 24024 28
19220 24021 24025 28
19221 24026 24027 28
19222 24026 24028 28
19223 24026 24029 28
19224 24026 24030 28
19225 24031 24032 28
19226 24031 24033 28
19227 24031 24034 28
19228 24031 24035 28
19229 24036 24037 28
19230 24036 24038 28
19231 24036 24039 28
19232 24036 24040 28
19233 24041 24042 28
19234 24041 24043 28
19235 24041 24044 28
19236 24041 24045 28
19237 24046 24047 28
19238 24046 24048 28
19239 24046 24049 28
19240 24046 24050 28
19241 24051 24052 28
19242 24051 24053 28
19243 24051 24054 28
19244 24051 24055 28
19245 24056 24057 28
19246 24056 24058 28
19247 24056 24059 28
19248 24056 24060 28
19249 24061 24062 28
19250 24061 24063 28
19251 24061 24064 28
19252 24061 24065 28
19253 24066 24067 28
19254 24066 24068 28
19255 24066 24069 28
19256 24066 24070 28
19257 24071 24072 28
19258 24071 24073 28
19259 24071 24074 28
19260 24071 24075 28
19261 24076 24077 28
19262 24076 24078 28
19263 24076 24079 28
19264 24076 24080 28
19265 24081 24082 28
19266 24081 24083 28
19267 24081 24084 28
19268 24081 24085 28
19269 24086 24087 28
19270 24086 24088 28
19271 24086 24089 28
19272 24086 24090 28
19273 24091 24092 28
19274 24091 24093 28
19275 24091 24094 28
19276 24091 24095 28
19277 24096 24097 28
19278 24096 24098 28
19279 24096 24099 28
19280 24096 24100 28
19281 24101 24102 28
19282 24101 24103 28
19283 24101 24104 28
19284 24101 24105 28
19285 24106 24107 28
19286 24106 24108 28
19287 24106 24109 28
19288 24106 24110 28
19289 24111 24112 28
19290 24111 24113 28
19291 24111 24114 28
19292 24111 24115 28
19293 24116 24117 28
19294 24116 24118 28
19295 24116 24119 28
19296 24116 24120 28
19297 24121 24122 28
19298 24121 24123 28
19299 24121 24124 28
19300 24121 24125 28
19301 24126 24127 28
19302 24126 24128 28
19303 24126 24129 28
19304 24126 24130 28
19305 24131 24132 28
19306 24131 24133 28
19307 24131 24134 28
19308 24131 24135 28
19309 24136 24137 28
19310 24136 24138 28
19311 24136 24139 28
19312 24136 24140 28
19313 24141 24142 28
19314 24141 24143 28
19315 24141 24144 28
19316 24141 24145 28
19317 24146 24147 28
19318 24146 24148 28
19319 24146 24149 28
19320 24146 24150 28
19321 24151 24152 28
19322 24151 24153 28
19323 24151 24154 28
19324 24151 24155 28
19325 24156 24157 28
19326 24156 24158 28
19327 24156 24159 28
19328 24156 24160 28
19329 24161 24162 28
19330 24161 24163 28
19331 24161 24164 28
19332 24161 24165 28
19333 24166 24167 28
19334 24166 24168 28
19335 24166 24169 28
19336 24166 24170 28
19337 24171 24172 28
19338 24171 24173 28
19339 24171 24174 28
19340 24171 24175 28
19341 24176 24177 28
19342 24176 24178 28
19343 24176 24179 28
19344 24176 24180 28
19345 24181 24182 28
19346 24181 24183 28
19347 24181 24184 28
19348 24181 24185 28
19349 24186 24187 28
19350 24186 24188 28
19351 24186 24189 28
19352 24186 24190 28
19353 24191 24192 28
19354 24191 24193 28
19355 24191 24194 28
19356 24191 24195 28
19357 24196 24197 28
19358 24196 24198 28
19359 24196 24199 28
19360 24196 24200 28
19361 24201 24202 28
19362 24201 24203 28
19363 24201 24204 28
19364 24201 24205 28
19365 24206 24207 28
19366 24206 24208 28
19367 24206 24209 28
19368 24206 24210 28
19369 24211 24212 28
19370 24211 24213 28
19371 24211 24214 28
19372 24211 24215 28
19373 24216 24217 28
19374 24216 24218 28
19375 24216 24219 28
19376 24216 24220 28
19377 24221 24222 28
19378 24221 24223 28
19379 24221 24224 28
19380 24221 24225 28
19381 24226 24227 28
19382 24226 24228 28
19383 24226 24229 28
19384 24226 24230 28
19385 24231 24232 28
19386 24231 24233 28
19387 24231 24234 28
19388 24231 24235 28
19389 24236 24237 28
19390 24236 24238 28
19391 24236 24239 28
19392 24236 24240 28
19393 24241 24242 28
19394 24241 24243 28
19395 24241 24244 28
19396 24241 24245 28
19397 24246 24247 28
19398 24246 24248 28
19399 24246 24249 28
19400 24246 24250 28
19401 24251 24252 28
19402 24251 24253 28
19403 24251 24254 28
19404 24251 24255 28
19405 24256 24257 28
19406 24256 24258 28
19407 24256 24259 28
19408 24256 24260 28
19409 24261 24262 28
19410 24261 24263 28
19411 24261 24264 28
19412 24261 24265 28
19413 24266 24267 28
19414 24266 24268 28
19415 24266 24269 28
19416 24266 24270 28
19417 24271 24272 28
19418 24271 24273 28
19419 24271 24274 28
19420 24271 24275 28
19421 24276 24277 28
19422 24276 24278 28
19423 24276 24279 28
19424 24276 24280 28
19425 24281 24282 28
19426 24281 24283 28
19427 24281 24284 28
19428 24281 24285 28
19429 24286 24287 28
19430 24286 24288 28
19431 24286 24289 28
19432 24286 24290 28
19433 24291 24292 28
19434 24291 24293 28
19435 24291 24294 28
19436 24291 24295 28
19437 24296 24297 28
19438 24296 24298 28
19439 24296 24299 28
19440 24296 24300 28
19441 24301 24302 28
19442 24301 24303 28
19443 24301 24304 28
19444 24301 24305 28
19445 24306 24307 28
19446 24306 24308 28
19447 24306 24309 28
19448 24306 24310 28
19449 24311 24312 28
19450 24311 24313 28
19451 24311 24314 28
19452 24311 24315 28
19453 24316 24317 28
19454 24316 24318 28
19455 24316 24319 28
19456 24316 24320 28
19457 24321 24322 28
19458 24321 24323 28
19459 24321 24324 28
19460 24321 24325 28
19461 24326 24327 28
19462 24326 24328 28
19463 24326 24329 28
19464 24326 24330 28
19465 24331 24332 28
19466 24331 24333 28
19467 24331 24334 28
19468 24331 24335 28
19469 24336 24337 28
19470 24336 24338 28
19471 24336 24339 28
19472 24336 24340 28
19473 24341 24342 28
19474 24341 24343 28
19475 24341 24344 28
19476 24341 24345 28
19477 24346 24347 28
19478 24346 24348 28
19479 24346 24349 28
19480 24346 24350 28
19481 24351 24352 28
19482 24351 24353 28
19483 24351 24354 28
19484 24351 24355 28
19485 24356 24357 28
19486 24356 24358 28
19487 24356 24359 28
19488 24356 24360 28
19489 24361 24362 28
19490 24361 24363 28
19491 24361 24364 28
19492 24361 24365 28
19493 24366 24367 28
19494 24366 24368 28
19495 24366 24369 28
19496 24366 24370 28
19497 24371 24372 28
19498 24371 24373 28
19499 24371 24374 28
19500 24371 24375 28
19501 24376 24377 28
19502 24376 24378 28
19503 24376 24379 28
19504 24376 24380 28
19505 24381 24382 28
19506 24381 24383 28
19507 24381 24384 28
19508 24381 24385 28
19509 24386 24387 28
19510 24386 24388 28
19511 24386 24389 28
19512 24386 24390 28
19513 24391 24392 28
19514 24391 24393 28
19515 24391 24394 28
19516 24391 24395 28
19517 24396 24397 28
19518 24396 24398 28
19519 24396 24399 28
19520 24396 24400 28
19521 24401 24402 28
19522 24401 24403 28
19523 24401 24404 28
19524 24401 24405 28
19525 24406 24407 28
19526 24406 24408 28
19527 24406 24409 28
19528 24406 24410 28
19529 24411 24412 28
19530 24411 24413 28
19531 24411 24414 28
19532 24411 24415 28
19533 24416 24417 28
19534 24416 24418 28
19535 24416 24419 28
19536 24416 24420 28
19537 24421 24422 28
19538 24421 24423 28
19539 24421 24424 28
19540 24421 24425 28
19541 24426 24427 28
19542 24426 24428 28
19543 24426 24429 28
19544 24426 24430 28
19545 24431 24432 28
19546 24431 24433 28
19547 24431 24434 28
19548 24431 24435 28
19549 24436 24437 28
19550 24436 24438 28
19551 24436 24439 28
19552 24436 24440 28
19553 24441 24442 28
19554 24441 24443 28
19555 24441 24444 28
19556 24441 24445 28
19557 24446 24447 28
19558 24446 24448 28
19559 24446 24449 28
19560 24446 24450 28
19561 24451 24452 28
19562 24451 24453 28
19563 24451 24454 28
19564 24451 24455 28
19565 24456 24457 28
19566 24456 24458 28
19567 24456 24459 28
19568 24456 24460 28
19569 24461 24462 28
19570 24461 24463 28
19571 24461 24464 28
19572 24461 24465 28
19573 24466 24467 28
19574 24466 24468 28
19575 24466 24469 28
19576 24466 24470 28
19577 24471 24472 28
19578 24471 24473 28
19579 24471 24474 28
19580 24471 24475 28
19581 24476 24477 28
19582 24476 24478 28
19583 24476 24479 28
19584 24476 24480 28
19585 24481 24482 28
19586 24481 24483 28
19587 24481 24484 28
19588 24481 24485 28
19589 24486 24487 28
19590 24486 24488 28
19591 24486 24489 28
19592 24486 24490 28
19593 24491 24492 28
19594 24491 24493 28
19595 24491 24494 28
19596 24491 24495 28
19597 24496 24497 28
19598 24496 24498 28
19599 24496 24499 28
19600 24496 24500 28
19601 24501 24502 28
19602 24501 24503 28
19603 24501 24504 28
19604 24501 24505 28
19605 24506 24507 28
19606 24506 24508 28
19607 24506 24509 28
19608 24506 24510 28
19609 24511 24512 28
19610 24511 24513 28
19611 24511 24514 28
19612 24511 24515 28
19613 24516 24517 28
19614 24516 24518 28
19615 24516 24519 28
19616 24516 24520 28
19617 24521 24522 28
19618 24521 24523 28
19619 24521 24524 28
19620 24521 24525 28
19621 24526 24527 28
19622 24526 24528 28
19623 24526 24529 28
19624 24526 24530 28
19625 24531 24532 28
19626 24531 24533 28
19627 24531 24534 28
19628 24531 24535 28
19629 24536 24537 28
19630 24536 24538 28
19631 24536 24539 28
19632 24536 24540 28
19633 24541 24542 28
19634 24541 24543 28
19635 24541 24544 28
19636 24541 24545 28
19637 24546 24547 28
19638 24546 24548 28
19639 24546 24549 28
19640 24546 24550 28
19641 24551 24552 28
19642 24551 24553 28
19643 24551 24554 28
19644 24551 24555 28
19645 24556 24557 28
19646 24556 24558 28
19647 24556 24559 28
19648 24556 24560 28
19649 24561 24562 28
19650 24561 24563 28
19651 24561 24564 28
19652 24561 24565 28
19653 24566 24567 28
19654 24566 24568 28
19655 24566 24569 28
19656 24566 24570 28
19657 24571 24572 28
19658 24571 24573 28
19659 24571 24574 28
19660 24571 24575 28
19661 24576 24577 28
19662 24576 24578 28
19663 24576 24579 28
19664 24576 24580 28
19665 24581 24582 28
19666 24581 24583 28
19667 24581 24584 28
19668 24581 24585 28
19669 24586 24587 28
19670 24586 24588 28
19671 24586 24589 28
19672 24586 24590 28
19673 24591 24592 28
19674 24591 24593 28
19675 24591 24594 28
19676 24591 24595 28
19677 24596 24597 28
19678 24596 24598 28
19679 24596 24599 28
19680 24596 24600 28
19681 24601 24602 28
19682 24601 24603 28
19683 24601 24604 28
19684 24601 24605 28
19685 24606 24607 28
19686 24606 24608 28
19687 24606 24609 28
19688 24606 24610 28
19689 24611 24612 28
19690 24611 24613 28
19691 24611 24614 28
19692 24611 24615 28
19693 24616 24617 28
19694 24616 24618 28
19695 24616 24619 28
19696 24616 24620 28
19697 24621 24622 28
19698 24621 24623 28
19699 24621 24624 28
19700 24621 24625 28
19701 24626 24627 28
19702 24626 24628 28
19703 24626 24629 28
19704 24626 24630 28
19705 24631 24632 28
19706 24631 24633 28
19707 24631 24634 28
19708 24631 24635 28
19709 24636 24637 28
19710 24636 24638 28
19711 24636 24639 28
19712 24636 24640 28
19713 24641 24642 28
19714 24641 24643 28
19715 24641 24644 28
19716 24641 24645 28
19717 24646 24647 28
19718 24646 24648 28
19719 24646 24649 28
19720 24646 24650 28
19721 24651 24652 28
19722 24651 24653 28
19723 24651 24654 28
19724 24651 24655 28
19725 24656 24657 28
19726 24656 24658 28
19727 24656 24659 28
19728 24656 24660 28
19729 24661 24662 28
19730 24661 24663 28
19731 24661 24664 28
19732 24661 24665 28
19733 24666 24667 28
19734 24666 24668 28
19735 24666 24669 28
19736 24666 24670 28
19737 24671 24672 28
19738 24671 24673 28
19739 24671 24674 28
19740 24671 24675 28
19741 24676 24677 28
19742 24676 24678 28
19743 24676 24679 28
19744 24676 24680 28
19745 24681 24682 28
19746 24681 24683 28
19747 24681 24684 28
19748 24681 24685 28
19749 24686 24687 28
19750 24686 24688 28
19751 24686 24689 28
19752 24686 24690 28
19753 24691 24692 28
19754 24691 24693 28
19755 24691 24694 28
19756 24691 24695 28
19757 24696 24697 28
19758 24696 24698 28
19759 24696 24699 28
19760 24696 24700 28
19761 24701 24702 28
19762 24701 24703 28
19763 24701 24704 28
19764 24701 24705 28
19765 24706 24707 28
19766 24706 24708 28
19767 24706 24709 28
19768 24706 24710 28
19769 24711 24712 28
19770 24711 24713 28
19771 24711 24714 28
19772 24711 24715 28
19773 24716 24717 28
19774 24716 24718 28
19775 24716 24719 28
19776 24716 24720 28
19777 24721 24722 28
19778 24721 24723 28
19779 24721 24724 28
19780 24721 24725 28
19781 24726 24727 28
19782 24726 24728 28
19783 24726 24729 28
19784 24726 24730 28
19785 24731 24732 28
19786 24731 24733 28
19787 24731 24734 28
19788 24731 24735 28
19789 24736 24737 28
19790 24736 24738 28
19791 24736 24739 28
19792 24736 24740 28
19793 24741 24742 28
19794 24741 24743 28
19795 24741 24744 28
19796 24741 24745 28
19797 24746 24747 28
19798 24746 24748 28
19799 24746 24749 28
19800 24746 24750 28
19801 24751 24752 28
19802 24751 24753 28
19803 24751 24754 28
19804 24751 24755 28
19805 24756 24757 28
19806 24756 24758 28
19807 24756 24759 28
19808 24756 24760 28
19809 24761 24762 28
19810 24761 24763 28
19811 24761 24764 28
19812 24761 24765 28
19813 24766 24767 28
19814 24766 24768 28
19815 24766 24769 28
19816 24766 24770 28
19817 24771 24772 28
19818 24771 24773 28
19819 24771 24774 28
19820 24771 24775 28
19821 24776 24777 28
19822 24776 24778 28
19823 24776 24779 28
19824 24776 24780 28
19825 24781 24782 28
19826 24781 24783 28
19827 24781 24784 28
19828 24781 24785 28
19829 24786 24787 28
19830 24786 24788 28
19831 24786 24789 28
19832 24786 24790 28
19833 24791 24792 28
19834 24791 24793 28
19835 24791 24794 28
19836 24791 24795 28
19837 24796 24797 28
19838 24796 24798 28
19839 24796 24799 28
19840 24796 24800 28
19841 24801 24802 28
19842 24801 24803 28
19843 24801 24804 28
19844 24801 24805 28
19845 24806 24807 28
19846 24806 24808 28
19847 24806 24809 28
19848 24806 24810 28
19849 24811 24812 28
19850 24811 24813 28
19851 24811 24814 28
19852 24811 24815 28
19853 24816 24817 28
19854 24816 24818 28
19855 24816 24819 28
19856 24816 24820 28
19857 24821 24822 28
19858 24821 24823 28
19859 24821 24824 28
19860 24821 24825 28
19861 24826 24827 28
19862 24826 24828 28
19863 24826 24829 28
19864 24826 24830 28
19865 24831 24832 28
19866 24831 24833 28
19867 24831 24834 28
19868 24831 24835 28
19869 24836 24837 28
19870 24836 24838 28
19871 24836 24839 28
19872 24836 24840 28
19873 24841 24842 28
19874 24841 24843 28
19875 24841 24844 28
19876 24841 24845 28
19877 24846 24847 28
19878 24846 24848 28
19879 24846 24849 28
19880 24846 24850 28
19881 24851 24852 28
19882 24851 24853 28
19883 24851 24854 28
19884 24851 24855 28
19885 24856 24857 28
19886 24856 24858 28
19887 24856 24859 28
19888 24856 24860 28
19889 24861 24862 28
19890 24861 24863 28
19891 24861 24864 28
19892 24861 24865 28
19893 24866 24867 28
19894 24866 24868 28
19895 24866 24869 28
19896 24866 24870 28
19897 24871 24872 28
19898 24871 24873 28
19899 24871 24874 28
19900 24871 24875 28
19901 24876 24877 28
19902 24876 24878 28
19903 24876 24879 28
19904 24876 24880 28
19905 24881 24882 28
19906 24881 24883 28
19907 24881 24884 28
19908 24881 24885 28
19909 24886 24887 28
19910 24886 24888 28
19911 24886 24889 28
19912 24886 24890 28
19913 24891 24892 28
19914 24891 24893 28
19915 24891 24894 28
19916 24891 24895 28
19917 24896 24897 28
19918 24896 24898 28
19919 24896 24899 28
19920 24896 24900 28
19921 24901 24902 28
19922 24901 24903 28
19923 24901 24904 28
19924 24901 24905 28
19925 24906 24907 28
19926 24906 24908 28
19927 24906 24909 28
19928 24906 24910 28
19929 24911 24912 28
19930 24911 24913 28
19931 24911 24914 28
19932 24911 24915 28
19933 24916 24917 28
19934 24916 24918 28
19935 24916 24919 28
19936 24916 24920 28
19937 24921 24922 28
19938 24921 24923 28
19939 24921 24924 28
19940 24921 24925 28
19941 24926 24927 28
19942 24926 24928 28
19943 24926 24929 28
19944 24926 24930 28
19945 24931 24932 28
19946 24931 24933 28
19947 24931 24934 28
19948 24931 24935 28
19949 24936 24937 28
19950 24936 24938 28
19951 24936 24939 28
19952 24936 24940 28
19953 24941 24942 28
19954 24941 24943 28
19955 24941 24944 28
19956 24941 24945 28
19957 24946 24947 28
19958 24946 24948 28
19959 24946 24949 28
19960 24946 24950 28
19961 24951 24952 28
19962 24951 24953 28
19963 24951 24954 28
19964 24951 24955 28
19965 24956 24957 28
19966 24956 24958 28
19967 24956 24959 28
19968 24956 24960 28
19969 24961 24962 28
19970 24961 24963 28
19971 24961 24964 28
19972 24961 24965 28
19973 24966 24967 28
19974 24966 24968 28
19975 24966 24969 28
19976 24966 24970 28
19977 24971 24972 28
19978 24971 24973 28
19979 24971 24974 28
19980 24971 24975 28
19981 24976 24977 28
19982 24976 24978 28
19983 24976 24979 28
19984 24976 24980 28
19985 24981 24982 28
19986 24981 24983 28
19987 24981 24984 28
19988 24981 24985 28
19989 24986 24987 28
19990 24986 24988 28
19991 24986 24989 28
19992 24986 24990 28
19993 24991 24992 28
19994 24991 24993 28
19995 24991 24994 28
19996 24991 24995 28
19997 24996 24997 28
19998 24996 24998 28
19999 24996 24999 28
20000 24996 25000 28
20001 25001 25002 28
20002 25001 25003 28
20003 25001 25004 28
20004 25001 25005 28
20005 25006 25007 28
20006 25006 25008 28
20007 25006 25009 28
20008 25006 25010 28
20009 25011 25012 28
20010 25011 25013 28
20011 25011 25014 28
20012 25011 25015 28
20013 25016 25017 28
20014 25016 25018 28
20015 25016 25019 28
20016 25016 25020 28
20017 25021 25022 28
20018 25021 25023 28
20019 25021 25024 28
20020 25021 25025 28
20021 25026 25027 28
20022 25026 25028 28
20023 25026 25029 28
20024 25026 25030 28
20025 25031 25032 28
20026 25031 25033 28
20027 25031 25034 28
20028 25031 25035 28
20029 25036 25037 28
20030 25036 25038 28
20031 25036 25039 28
20032 25036 25040 28
20033 25041 25042 28
20034 25041 25043 28
20035 25041 25044 28
20036 25041 25045 28
20037 25046 25047 28
20038 25046 25048 28
20039 25046 25049 28
20040 25046 25050 28
20041 25051 25052 28
20042 25051 25053 28
20043 25051 25054 28
20044 25051 25055 28
20045 25056 25057 28
20046 25056 25058 28
20047 25056 25059 28
20048 25056 25060 28
20049 25061 25062 28
20050 25061 25063 28
20051 25061 25064 28
20052 25061 25065 28
20053 25066 25067 28
20054 25066 25068 28
20055 25066 25069 28
20056 25066 25070 28
20057 25071 25072 28
20058 25071 25073 28
20059 25071 25074 28
20060 25071 25075 28
20061 25076 25077 28
20062 25076 25078 28
20063 25076 25079 28
20064 25076 25080 28
20065 25081 25082 28
20066 25081 25083 28
20067 25081 25084 28
20068 25081 25085 28
20069 25086 25087 28
20070 25086 25088 28
20071 25086 25089 28
20072 25086 25090 28
20073 25091 25092 28
20074 25091 25093 28
20075 25091 25094 28
20076 25091 25095 28
20077 25096 25097 28
20078 25096 25098 28
20079 25096 25099 28
20080 25096 25100 28
20081 25101 25102 28
20082 25101 25103 28
20083 25101 25104 28
20084 25101 25105 28
20085 25106 25107 28
20086 25106 25108 28
20087 25106 25109 28
20088 25106 25110 28
20089 25111 25112 28
20090 25111 25113 28
20091 25111 25114 28
20092 25111 25115 28
20093 25116 25117 28
20094 25116 25118 28
20095 25116 25119 28
20096 25116 25120 28
20097 25121 25122 28
20098 25121 25123 28
20099 25121 25124 28
20100 25121 25125 28
20101 25126 25127 28
20102 25126 25128 28
20103 25126 25129 28
20104 25126 25130 28
20105 25131 25132 28
20106 25131 25133 28
20107 25131 25134 28
20108 25131 25135 28
20109 25136 25137 28
20110 25136 25138 28
20111 25136 25139 28
20112 25136 25140 28
20113 25141 25142 28
20114 25141 25143 28
20115 25141 25144 28
20116 25141 25145 28
20117 25146 25147 28
20118 25146 25148 28
20119 25146 25149 28
20120 25146 25150 28
20121 25151 25152 28
20122 25151 25153 28
20123 25151 25154 28
20124 25151 25155 28
20125 25156 25157 28
20126 25156 25158 28
20127 25156 25159 28
20128 25156 25160 28
20129 25161 25162 28
20130 25161 25163 28
20131 25161 25164 28
20132 25161 25165 28
20133 25166 25167 28
20134 25166 25168 28
20135 25166 25169 28
20136 25166 25170 28
20137 25171 25172 28
20138 25171 25173 28
20139 25171 25174 28
20140 25171 25175 28
20141 25176 25177 28
20142 25176 25178 28
20143 25176 25179 28
20144 25176 25180 28
20145 25181 25182 28
20146 25181 25183 28
20147 25181 25184 28
20148 25181 25185 28
20149 25186 25187 28
20150 25186 25188 28
20151 25186 25189 28
20152 25186 25190 28
20153 25191 25192 28
20154 25191 25193 28
20155 25191 25194 28
20156 25191 25195 28
20157 25196 25197 28
20158 25196 25198 28
20159 25196 25199 28
20160 25196 25200 28
20161 25201 25202 28
20162 25201 25203 28
20163 25201 25204 28
20164 25201 25205 28
20165 25206 25207 28
20166 25206 25208 28
20167 25206 25209 28
20168 25206 25210 28
20169 25211 25212 28
20170 25211 25213 28
20171 25211 25214 28
20172 25211 25215 28
20173 25216 25217 28
20174 25216 25218 28
20175 25216 25219 28
20176 25216 25220 28
20177 25221 25222 28
20178 25221 25223 28
20179 25221 25224 28
20180 25221 25225 28
20181 25226 25227 28
20182 25226 25228 28
20183 25226 25229 28
20184 25226 25230 28
20185 25231 25232 28
20186 25231 25233 28
20187 25231 25234 28
20188 25231 25235 28
20189 25236 25237 28
20190 25236 25238 28
20191 25236 25239 28
20192 25236 25240 28
20193 25241 25242 28
20194 25241 25243 28
20195 25241 25244 28
20196 25241 25245 28
20197 25246 25247 28
20198 25246 25248 28
20199 25246 25249 28
20200 25246 25250 28
20201 25251 25252 28
20202 25251 25253 28
20203 25251 25254 28
20204 25251 25255 28
20205 25256 25257 28
20206 25256 25258 28
20207 25256 25259 28
20208 25256 25260 28
20209 25261 25262 28
20210 25261 25263 28
20211 25261 25264 28
20212 25261 25265 28
20213 25266 25267 28
20214 25266 25268 28
20215 25266 25269 28
20216 25266 25270 28
20217 25271 25272 28
20218 25271 25273 28
20219 25271 25274 28
20220 25271 25275 28
20221 25276 25277 28
20222 25276 25278 28
20223 25276 25279 28
20224 25276 25280 28
20225 25281 25282 28
20226 25281 25283 28
20227 25281 25284 28
20228 25281 25285 28
20229 25286 25287 28
20230 25286 25288 28
20231 25286 25289 28
20232 25286 25290 28
20233 25291 25292 28
20234 25291 25293 28
20235 25291 25294 28
20236 25291 25295 28
20237 25296 25297 28
20238 25296 25298 28
20239 25296 25299 28
20240 25296 25300 28
20241 25301 25302 28
20242 25301 25303 28
20243 25301 25304 28
20244 25301 25305 28
20245 25306 25307 28
20246 25306 25308 28
20247 25306 25309 28
20248 25306 25310 28
20249 25311 25312 28
20250 25311 25313 28
20251 25311 25314 28
20252 25311 25315 28
20253 25316 25317 28
20254 25316 25318 28
20255 25316 25319 28
20256 25316 25320 28
20257 25321 25322 28
20258 25321 25323 28
20259 25321 25324 28
20260 25321 25325 28
20261 25326 25327 28
20262 25326 25328 28
20263 25326 25329 28
20264 25326 25330 28
20265 25331 25332 28
20266 25331 25333 28
20267 25331 25334 28
20268 25331 25335 28
20269 25336 25337 28
20270 25336 25338 28
20271 25336 25339 28
20272 25336 25340 28
20273 25341 25342 28
20274 25341 25343 28
20275 25341 25344 28
20276 25341 25345 28
20277 25346 25347 28
20278 25346 25348 28
20279 25346 25349 28
20280 25346 25350 28
20281 25351 25352 28
20282 25351 25353 28
20283 25351 25354 28
20284 25351 25355 28
20285 25356 25357 28
20286 25356 25358 28
20287 25356 25359 28
20288 25356 25360 28
20289 25361 25362 28
20290 25361 25363 28
20291 25361 25364 28
20292 25361 25365 28
20293 25366 25367 28
20294 25366 25368 28
20295 25366 25369 28
20296 25366 25370 28
20297 25371 25372 28
20298 25371 25373 28
20299 25371 25374 28
20300 25371 25375 28
20301 25376 25377 28
20302 25376 25378 28
20303 25376 25379 28
20304 25376 25380 28
20305 25381 25382 28
20306 25381 25383 28
20307 25381 25384 28
20308 25381 25385 28
20309 25386 25387 28
20310 25386 25388 28
20311 25386 25389 28
20312 25386 25390 28
20313 25391 25392 28
20314 25391 25393 28
20315 25391 25394 28
20316 25391 25395 28
20317 25396 25397 28
20318 25396 25398 28
20319 25396 25399 28
20320 25396 25400 28
20321 25401 25402 28
20322 25401 25403 28
20323 25401 25404 28
20324 25401 25405 28
20325 25406 25407 28
20326 25406 25408 28
20327 25406 25409 28
20328 25406 25410 28
20329 25411 25412 28
20330 25411 25413 28
20331 25411 25414 28
20332 25411 25415 28
20333 25416 25417 28
20334 25416 25418 28
20335 25416 25419 28
20336 25416 25420 28
20337 25421 25422 28
20338 25421 25423 28
20339 25421 25424 28
20340 25421 25425 28
20341 25426 25427 28
20342 25426 25428 28
20343 25426 25429 28
20344 25426 25430 28
20345 25431 25432 28
20346 25431 25433 28
20347 25431 25434 28
20348 25431 25435 28
20349 25436 25437 28
20350 25436 25438 28
20351 25436 25439 28
20352 25436 25440 28
20353 25441 25442 28
20354 25441 25443 28
20355 25441 25444 28
20356 25441 25445 28
20357 25446 25447 28
20358 25446 25448 28
20359 25446 25449 28
20360 25446 25450 28
20361 25451 25452 28
20362 25451 25453 28
20363 25451 25454 28
20364 25451 25455 28
20365 25456 25457 28
20366 25456 25458 28
20367 25456 25459 28
20368 25456 25460 28
20369 25461 25462 28
20370 25461 25463 28
20371 25461 25464 28
20372 25461 25465 28
20373 25466 25467 28
20374 25466 25468 28
20375 25466 25469 28
20376 25466 25470 28
20377 25471 25472 28
20378 25471 25473 28
20379 25471 25474 28
20380 25471 25475 28
20381 25476 25477 28
20382 25476 25478 28
20383 25476 25479 28
20384 25476 25480 28
20385 25481 25482 28
20386 25481 25483 28
20387 25481 25484 28
20388 25481 25485 28
20389 25486 25487 28
20390 25486 25488 28
20391 25486 25489 28
20392 25486 25490 28
20393 25491 25492 28
20394 25491 25493 28
20395 25491 25494 28
20396 25491 25495 28
20397 25496 25497 28
20398 25496 25498 28
20399 25496 25499 28
20400 25496 25500 28
20401 25501 25502 28
20402 25501 25503 28
20403 25501 25504 28
20404 25501 25505 28
20405 25506 25507 28
20406 25506 25508 28
20407 25506 25509 28
20408 25506 25510 28
20409 25511 25512 28
20410 25511 25513 28
20411 25511 25514 28
20412 25511 25515 28
20413 25516 25517 28
20414 25516 25518 28
20415 25516 25519 28
20416 25516 25520 28
20417 25521 25522 28
20418 25521 25523 28
20419 25521 25524 28
20420 25521 25525 28
20421 25526 25527 28
20422 25526 25528 28
20423 25526 25529 28
20424 25526 25530 28
20425 25531 25532 28
20426 25531 25533 28
20427 25531 25534 28
20428 25531 25535 28
20429 25536 25537 28
20430 25536 25538 28
20431 25536 25539 28
20432 25536 25540 28
20433 25541 25542 28
20434 25541 25543 28
20435 25541 25544 28
20436 25541 25545 28
20437 25546 25547 28
20438 25546 25548 28
20439 25546 25549 28
20440 25546 25550 28
20441 25551 25552 28
20442 25551 25553 28
20443 25551 25554 28
20444 25551 25555 28
20445 25556 25557 28
20446 25556 25558 28
20447 25556 25559 28
20448 25556 25560 28
20449 25561 25562 28
20450 25561 25563 28
20451 25561 25564 28
20452 25561 25565 28
20453 25566 25567 28
20454 25566 25568 28
20455 25566 25569 28
20456 25566 25570 28
20457 25571 25572 28
20458 25571 25573 28
20459 25571 25574 28
20460 25571 25575 28
20461 25576 25577 28
20462 25576 25578 28
20463 25576 25579 28
20464 25576 25580 28
20465 25581 25582 28
20466 25581 25583 28
20467 25581 25584 28
20468 25581 25585 28
20469 25586 25587 28
20470 25586 25588 28
20471 25586 25589 28
20472 25586 25590 28
20473 25591 25592 28
20474 25591 25593 28
20475 25591 25594 28
20476 25591 25595 28
20477 25596 25597 28
20478 25596 25598 28
20479 25596 25599 28
20480 25596 25600 28
20481 25601 25602 28
20482 25601 25603 28
20483 25601 25604 28
20484 25601 25605 28
20485 25606 25607 28
20486 25606 25608 28
20487 25606 25609 28
20488 25606 25610 28
20489 25611 25612 28
20490 25611 25613 28
20491 25611 25614 28
20492 25611 25615 28
20493 25616 25617 28
20494 25616 25618 28
20495 25616 25619 28
20496 25616 25620 28
20497 25621 25622 28
20498 25621 25623 28
20499 25621 25624 28
20500 25621 25625 28
20501 25626 25627 28
20502 25626 25628 28
20503 25626 25629 28
20504 25626 25630 28
20505 25631 25632 28
20506 25631 25633 28
20507 25631 25634 28
20508 25631 25635 28
20509 25636 25637 28
20510 25636 25638 28
20511 25636 25639 28
20512 25636 25640 28
20513 25641 25642 28
20514 25641 25643 28
20515 25641 25644 28
20516 25641 25645 28
20517 25646 25647 28
20518 25646 25648 28
20519 25646 25649 28
20520 25646 25650 28
20521 25651 25652 28
20522 25651 25653 28
20523 25651 25654 28
20524 25651 25655 28
20525 25656 25657 28
20526 25656 25658 28
20527 25656 25659 28
20528 25656 25660 28
20529 25661 25662 28
20530 25661 25663 28
20531 25661 25664 28
20532 25661 25665 28
20533 25666 25667 28
20534 25666 25668 28
20535 25666 25669 28
20536 25666 25670 28
20537 25671 25672 28
20538 25671 25673 28
20539 25671 25674 28
20540 25671 25675 28
20541 25676 25677 28
20542 25676 25678 28
20543 25676 25679 28
20544 25676 25680 28
20545 25681 25682 28
20546 25681 25683 28
20547 25681 25684 28
20548 25681 25685 28
20549 25686 25687 28
20550 25686 25688 28
20551 25686 25689 28
20552 25686 25690 28
20553 25691 25692 28
20554 25691 25693 28
20555 25691 25694 28
20556 25691 25695 28
20557 25696 25697 28
20558 25696 25698 28
20559 25696 25699 28
20560 25696 25700 28
20561 25701 25702 28
20562 25701 25703 28
20563 25701 25704 28
20564 25701 25705 28
20565 25706 25707 28
20566 25706 25708 28
20567 25706 25709 28
20568 25706 25710 28
20569 25711 25712 28
20570 25711 25713 28
20571 25711 25714 28
20572 25711 25715 28
20573 25716 25717 28
20574 25716 25718 28
20575 25716 25719 28
20576 25716 25720 28
20577 25721 25722 28
20578 25721 25723 28
20579 25721 25724 28
20580 25721 25725 28
20581 25726 25727 28
20582 25726 25728 28
20583 25726 25729 28
20584 25726 25730 28
20585 25731 25732 28
20586 25731 25733 28
20587 25731 25734 28
20588 25731 25735 28
20589 25736 25737 28
20590 25736 25738 28
20591 25736 25739 28
20592 25736 25740 28
20593 25741 25742 28
20594 25741 25743 28
20595 25741 25744 28
20596 25741 25745 28
20597 25746 25747 28
20598 25746 25748 28
20599 25746 25749 28
20600 25746 25750 28
20601 25751 25752 28
20602 25751 25753 28
20603 25751 25754 28
20604 25751 25755 28
20605 25756 25757 28
20606 25756 25758 28
20607 25756 25759 28
20608 25756 25760 28
20609 25761 25762 28
20610 25761 25763 28
20611 25761 25764 28
20612 25761 25765 28
20613 25766 25767 28
20614 25766 25768 28
20615 25766 25769 28
20616 25766 25770 28
20617 25771 25772 28
20618 25771 25773 28
20619 25771 25774 28
20620 25771 25775 28
20621 25776 25777 28
20622 25776 25778 28
20623 25776 25779 28
20624 25776 25780 28
20625 25781 25782 28
20626 25781 25783 28
20627 25781 25784 28
20628 25781 25785 28
20629 25786 25787 28
20630 25786 25788 28
20631 25786 25789 28
20632 25786 25790 28
20633 25791 25792 28
20634 25791 25793 28
20635 25791 25794 28
20636 25791 25795 28
20637 25796 25797 28
20638 25796 25798 28
20639 25796 25799 28
20640 25796 25800 28
20641 25801 25802 28
20642 25801 25803 28
20643 25801 25804 28
20644 25801 25805 28
20645 25806 25807 28
20646 25806 25808 28
20647 25806 25809 28
20648 25806 25810 28
20649 25811 25812 28
20650 25811 25813 28
20651 25811 25814 28
20652 25811 25815 28
20653 25816 25817 28
20654 25816 25818 28
20655 25816 25819 28
20656 25816 25820 28
20657 25821 25822 28
20658 25821 25823 28
20659 25821 25824 28
20660 25821 25825 28
20661 25826 25827 28
20662 25826 25828 28
20663 25826 25829 28
20664 25826 25830 28
20665 25831 25832 28
20666 25831 25833 28
20667 25831 25834 28
20668 25831 25835 28
20669 25836 25837 28
20670 25836 25838 28
20671 25836 25839 28
20672 25836 25840 28
20673 25841 25842 28
20674 25841 25843 28
20675 25841 25844 28
20676 25841 25845 28
20677 25846 25847 28
20678 25846 25848 28
20679 25846 25849 28
20680 25846 25850 28
20681 25851 25852 28
20682 25851 25853 28
20683 25851 25854 28
20684 25851 25855 28
20685 25856 25857 28
20686 25856 25858 28
20687 25856 25859 28
20688 25856 25860 28
20689 25861 25862 28
20690 25861 25863 28
20691 25861 25864 28
20692 25861 25865 28
20693 25866 25867 28
20694 25866 25868 28
20695 25866 25869 28
20696 25866 25870 28
20697 25871 25872 28
20698 25871 25873 28
20699 25871 25874 28
20700 25871 25875 28
20701 25876 25877 28
20702 25876 25878 28
20703 25876 25879 28
20704 25876 25880 28
20705 25881 25882 28
20706 25881 25883 28
20707 25881 25884 28
20708 25881 25885 28
20709 25886 25887 28
20710 25886 25888 28
20711 25886 25889 28
20712 25886 25890 28
20713 25891 25892 28
20714 25891 25893 28
20715 25891 25894 28
20716 25891 25895 28
20717 25896 25897 28
20718 25896 25898 28
20719 25896 25899 28
20720 25896 25900 28
20721 25901 25902 28
20722 25901 25903 28
20723 25901 25904 28
20724 25901 25905 28
20725 25906 25907 28
20726 25906 25908 28
20727 25906 25909 28
20728 25906 25910 28
20729 25911 25912 28
20730 25911 25913 28
20731 25911 25914 28
20732 25911 25915 28
20733 25916 25917 28
20734 25916 25918 28
20735 25916 25919 28
20736 25916 25920 28
20737 25921 25922 28
20738 25921 25923 28
20739 25921 25924 28
20740 25921 25925 28
20741 25926 25927 28
20742 25926 25928 28
20743 25926 25929 28
20744 25926 25930 28
20745 25931 25932 28
20746 25931 25933 28
20747 25931 25934 28
20748 25931 25935 28
20749 25936 25937 28
20750 25936 25938 28
20751 25936 25939 28
20752 25936 25940 28
20753 25941 25942 28
20754 25941 25943 28
20755 25941 25944 28
20756 25941 25945 28
20757 25946 25947 28
20758 25946 25948 28
20759 25946 25949 28
20760 25946 25950 28
20761 25951 25952 28
20762 25951 25953 28
20763 25951 25954 28
20764 25951 25955 28
20765 25956 25957 28
20766 25956 25958 28
20767 25956 25959 28
20768 25956 25960 28
20769 25961 25962 28
20770 25961 25963 28
20771 25961 25964 28
20772 25961 25965 28
20773 25966 25967 28
20774 25966 25968 28
20775 25966 25969 28
20776 25966 25970 28
20777 25971 25972 28
20778 25971 25973 28
20779 25971 25974 28
20780 25971 25975 28
20781 25976 25977 28
20782 25976 25978 28
20783 25976 25979 28
20784 25976 25980 28
20785 25981 25982 28
20786 25981 25983 28
20787 25981 25984 28
20788 25981 25985 28
20789 25986 25987 28
20790 25986 25988 28
20791 25986 25989 28
20792 25986 25990 28
20793 25991 25992 28
20794 25991 25993 28
20795 25991 25994 28
20796 25991 25995 28
20797 25996 25997 28
20798 25996 25998 28
20799 25996 25999 28
20800 25996 26000 28
20801 26001 26002 28
20802 26001 26003 28
20803 26001 26004 28
20804 26001 26005 28
20805 26006 26007 28
20806 26006 26008 28
20807 26006 26009 28
20808 26006 26010 28
20809 26011 26012 28
20810 26011 26013 28
20811 26011 26014 28
20812 26011 26015 28
20813 26016 26017 28
20814 26016 26018 28
20815 26016 26019 28
20816 26016 26020 28
20817 26021 26022 28
20818 26021 26023 28
20819 26021 26024 28
20820 26021 26025 28
20821 26026 26027 28
20822 26026 26028 28
20823 26026 26029 28
20824 26026 26030 28
20825 26031 26032 28
20826 26031 26033 28
20827 26031 26034 28
20828 26031 26035 28
20829 26036 26037 28
20830 26036 26038 28
20831 26036 26039 28
20832 26036 26040 28
20833 26041 26042 28
20834 26041 26043 28
20835 26041 26044 28
20836 26041 26045 28
20837 26046 26047 28
20838 26046 26048 28
20839 26046 26049 28
20840 26046 26050 28
20841 26051 26052 28
20842 26051 26053 28
20843 26051 26054 28
20844 26051 26055 28
20845 26056 26057 28
20846 26056 26058 28
20847 26056 26059 28
20848 26056 26060 28
20849 26061 26062 28
20850 26061 26063 28
20851 26061 26064 28
20852 26061 26065 28
20853 26066 26067 28
20854 26066 26068 28
20855 26066 26069 28
20856 26066 26070 28
20857 26071 26072 28
20858 26071 26073 28
20859 26071 26074 28
20860 26071 26075 28
20861 26076 26077 28
20862 26076 26078 28
20863 26076 26079 28
20864 26076 26080 28
20865 26081 26082 28
20866 26081 26083 28
20867 26081 26084 28
20868 26081 26085 28
20869 26086 26087 28
20870 26086 26088 28
20871 26086 26089 28
20872 26086 26090 28
20873 26091 26092 28
20874 26091 26093 28
20875 26091 26094 28
20876 26091 26095 28
20877 26096 26097 28
20878 26096 26098 28
20879 26096 26099 28
20880 26096 26100 28
20881 26101 26102 28
20882 26101 26103 28
20883 26101 26104 28
20884 26101 26105 28
20885 26106 26107 28
20886 26106 26108 28
20887 26106 26109 28
20888 26106 26110 28
20889 26111 26112 28
20890 26111 26113 28
20891 26111 26114 28
20892 26111 26115 28
20893 26116 26117 28
20894 26116 26118 28
20895 26116 26119 28
20896 26116 26120 28
20897 26121 26122 28
20898 26121 26123 28
20899 26121 26124 28
20900 26121 26125 28
20901 26126 26127 28
20902 26126 26128 28
20903 26126 26129 28
20904 26126 26130 28
20905 26131 26132 28
20906 26131 26133 28
20907 26131 26134 28
20908 26131 26135 28
20909 26136 26137 28
20910 26136 26138 28
20911 26136 26139 28
20912 26136 26140 28
20913 26141 26142 28
20914 26141 26143 28
20915 26141 26144 28
20916 26141 26145 28
20917 26146 26147 28
20918 26146 26148 28
20919 26146 26149 28
20920 26146 26150 28
20921 26151 26152 28
20922 26151 26153 28
20923 26151 26154 28
20924 26151 26155 28
20925 26156 26157 28
20926 26156 26158 28
20927 26156 26159 28
20928 26156 26160 28
20929 26161 26162 28
20930 26161 26163 28
20931 26161 26164 28
20932 26161 26165 28
20933 26166 26167 28
20934 26166 26168 28
20935 26166 26169 28
20936 26166 26170 28
20937 26171 26172 28
20938 26171 26173 28
20939 26171 26174 28
20940 26171 26175 28
20941 26176 26177 28
20942 26176 26178 28
20943 26176 26179 28
20944 26176 26180 28
20945 26181 26182 28
20946 26181 26183 28
20947 26181 26184 28
20948 26181 26185 28
20949 26186 26187 28
20950 26186 26188 28
20951 26186 26189 28
20952 26186 26190 28
20953 26191 26192 28
20954 26191 26193 28
20955 26191 26194 28
20956 26191 26195 28
20957 26196 26197 28
20958 26196 26198 28
20959 26196 26199 28
20960 26196 26200 28
20961 26201 26202 28
20962 26201 26203 28
20963 26201 26204 28
20964 26201 26205 28
20965 26206 26207 28
20966 26206 26208 28
20967 26206 26209 28
20968 26206 26210 28
20969 26211 26212 28
20970 26211 26213 28
20971 26211 26214 28
20972 26211 26215 28
20973 26216 26217 28
20974 26216 26218 28
20975 26216 26219 28
20976 26216 26220 28
20977 26221 26222 28
20978 26221 26223 28
20979 26221 26224 28
20980 26221 26225 28
20981 26226 26227 28
20982 26226 26228 28
20983 26226 26229 28
20984 26226 26230 28
20985 26231 26232 28
20986 26231 26233 28
20987 26231 26234 28
20988 26231 26235 28
20989 26236 26237 28
20990 26236 26238 28
20991 26236 26239 28
20992 26236 26240 28
20993 26241 26242 28
20994 26241 26243 28
20995 26241 26244 28
20996 26241 26245 28
20997 26246 26247 28
20998 26246 26248 28
20999 26246 26249 28
21000 26246 26250 28
21001 26251 26252 28
21002 26251 26253 28
21003 26251 26254 28
21004 26251 26255 28
21005 26256 26257 28
21006 26256 26258 28
21007 26256 26259 28
21008 26256 26260 28
21009 26261 26262 28
21010 26261 26263 28
21011 26261 26264 28
21012 26261 26265 28
21013 26266 26267 28
21014 26266 26268 28
21015 26266 26269 28
21016 26266 26270 28
21017 26271 26272 28
21018 26271 26273 28
21019 26271 26274 28
21020 26271 26275 28
21021 26276 26277 28
21022 26276 26278 28
21023 26276 26279 28
21024 26276 26280 28
21025 26281 26282 28
21026 26281 26283 28
21027 26281 26284 28
21028 26281 26285 28
21029 26286 26287 28
21030 26286 26288 28
21031 26286 26289 28
21032 26286 26290 28
21033 26291 26292 28
21034 26291 26293 28
21035 26291 26294 28
21036 26291 26295 28
21037 26296 26297 28
21038 26296 26298 28
21039 26296 26299 28
21040 26296 26300 28
21041 26301 26302 28
21042 26301 26303 28
21043 26301 26304 28
21044 26301 26305 28
21045 26306 26307 28
21046 26306 26308 28
21047 26306 26309 28
21048 26306 26310 28
21049 26311 26312 28
21050 26311 26313 28
21051 26311 26314 28
21052 26311 26315 28
21053 26316 26317 28
21054 26316 26318 28
21055 26316 26319 28
21056 26316 26320 28
21057 26321 26322 28
21058 26321 26323 28
21059 26321 26324 28
21060 26321 26325 28
21061 26326 26327 28
21062 26326 26328 28
21063 26326 26329 28
21064 26326 26330 28
21065 26331 26332 28
21066 26331 26333 28
21067 26331 26334 28
21068 26331 26335 28
21069 26336 26337 28
21070 26336 26338 28
21071 26336 26339 28
21072 26336 26340 28
21073 26341 26342 28
21074 26341 26343 28
21075 26341 26344 28
21076 26341 26345 28
21077 26346 26347 28
21078 26346 26348 28
21079 26346 26349 28
21080 26346 26350 28
21081 26351 26352 28
21082 26351 26353 28
21083 26351 26354 28
21084 26351 26355 28
21085 26356 26357 28
21086 26356 26358 28
21087 26356 26359 28
21088 26356 26360 28
21089 26361 26362 28
21090 26361 26363 28
21091 26361 26364 28
21092 26361 26365 28
21093 26366 26367 28
21094 26366 26368 28
21095 26366 26369 28
21096 26366 26370 28
21097 26371 26372 28
21098 26371 26373 28
21099 26371 26374 28
21100 26371 26375 28
21101 26376 26377 28
21102 26376 26378 28
21103 26376 26379 28
21104 26376 26380 28
21105 26381 26382 28
21106 26381 26383 28
21107 26381 26384 28
21108 26381 26385 28
21109 26386 26387 28
21110 26386 26388 28
21111 26386 26389 28
21112 26386 26390 28
21113 26391 26392 28
21114 26391 26393 28
21115 26391 26394 28
21116 26391 26395 28
21117 26396 26397 28
21118 26396 26398 28
21119 26396 26399 28
21120 26396 26400 28
21121 26401 26402 28
21122 26401 26403 28
21123 26401 26404 28
21124 26401 26405 28
21125 26406 26407 28
21126 26406 26408 28
21127 26406 26409 28
21128 26406 26410 28
21129 26411 26412 28
21130 26411 26413 28
21131 26411 26414 28
21132 26411 26415 28
21133 26416 26417 28
21134 26416 26418 28
21135 26416 26419 28
21136 26416 26420 28
21137 26421 26422 28
21138 26421 26423 28
21139 26421 26424 28
21140 26421 26425 28
21141 26426 26427 28
21142 26426 26428 28
21143 26426 26429 28
21144 26426 26430 28
21145 26431 26432 28
21146 26431 26433 28
21147 26431 26434 28
21148 26431 26435 28
21149 26436 26437 28
21150 26436 26438 28
21151 26436 26439 28
21152 26436 26440 28
21153 26441 26442 28
21154 26441 26443 28
21155 26441 26444 28
21156 26441 26445 28
21157 26446 26447 28
21158 26446 26448 28
21159 26446 26449 28
21160 26446 26450 28
21161 26451 26452 28
21162 26451 26453 28
21163 26451 26454 28
21164 26451 26455 28
21165 26456 26457 28
21166 26456 26458 28
21167 26456 26459 28
21168 26456 26460 28
21169 26461 26462 28
21170 26461 26463 28
21171 26461 26464 28
21172 26461 26465 28
21173 26466 26467 28
21174 26466 26468 28
21175 26466 26469 28
21176 26466 26470 28
21177 26471 26472 28
21178 26471 26473 28
21179 26471 26474 28
21180 26471 26475 28
21181 26476 26477 28
21182 26476 26478 28
21183 26476 26479 28
21184 26476 26480 28
21185 26481 26482 28
21186 26481 26483 28
21187 26481 26484 28
21188 26481 26485 28
21189 26486 26487 28
21190 26486 26488 28
21191 26486 26489 28
21192 26486 26490 28
21193 26491 26492 28
21194 26491 26493 28
21195 26491 26494 28
21196 26491 26495 28
21197 26496 26497 28
21198 26496 26498 28
21199 26496 26499 28
21200 26496 26500 28
21201 26501 26502 28
21202 26501 26503 28
21203 26501 26504 28
21204 26501 26505 28
21205 26506 26507 28
21206 26506 26508 28
21207 26506 26509 28
21208 26506 26510 28
21209 26511 26512 28
21210 26511 26513 28
21211 26511 26514 28
21212 26511 26515 28
21213 26516 26517 28
21214 26516 26518 28
21215 26516 26519 28
21216 26516 26520 28
21217 26521 26522 28
21218 26521 26523 28
21219 26521 26524 28
21220 26521 26525 28
21221 26526 26527 28
21222 26526 26528 28
21223 26526 26529 28
21224 26526 26530 28
21225 26531 26532 28
21226 26531 26533 28
21227 26531 26534 28
21228 26531 26535 28
21229 26536 26537 28
21230 26536 26538 28
21231 26536 26539 28
21232 26536 26540 28
21233 26541 26542 28
21234 26541 26543 28
21235 26541 26544 28
21236 26541 26545 28
21237 26546 26547 28
21238 26546 26548 28
21239 26546 26549 28
21240 26546 26550 28
21241 26551 26552 28
21242 26551 26553 28
21243 26551 26554 28
21244 26551 26555 28
21245 26556 26557 28
21246 26556 26558 28
21247 26556 26559 28
21248 26556 26560 28
21249 26561 26562 28
21250 26561 26563 28
21251 26561 26564 28
21252 26561 26565 28
21253 26566 26567 28
21254 26566 26568 28
21255 26566 26569 28
21256 26566 26570 28
21257 26571 26572 28
21258 26571 26573 28
21259 26571 26574 28
21260 26571 26575 28
21261 26576 26577 28
21262 26576 26578 28
21263 26576 26579 28
21264 26576 26580 28
21265 26581 26582 28
21266 26581 26583 28
21267 26581 26584 28
21268 26581 26585 28
21269 26586 26587 28
21270 26586 26588 28
21271 26586 26589 28
21272 26586 26590 28
21273 26591 26592 28
21274 26591 26593 28
21275 26591 26594 28
21276 26591 26595 28
21277 26596 26597 28
21278 26596 26598 28
21279 26596 26599 28
21280 26596 26600 28
21281 26601 26602 28
21282 26601 26603 28
21283 26601 26604 28
21284 26601 26605 28
21285 26606 26607 28
21286 26606 26608 28
21287 26606 26609 28
21288 26606 26610 28
21289 26611 26612 28
21290 26611 26613 28
21291 26611 26614 28
21292 26611 26615 28
21293 26616 26617 28
21294 26616 26618 28
21295 26616 26619 28
21296 26616 26620 28
21297 26621 26622 28
21298 26621 26623 28
21299 26621 26624 28
21300 26621 26625 28
21301 26626 26627 28
21302 26626 26628 28
21303 26626 26629 28
21304 26626 26630 28
21305 26631 26632 28
21306 26631 26633 28
21307 26631 26634 28
21308 26631 26635 28
21309 26636 26637 28
21310 26636 26638 28
21311 26636 26639 28
21312 26636 26640 28
21313 26641 26642 28
21314 26641 26643 28
21315 26641 26644 28
21316 26641 26645 28
21317 26646 26647 28
21318 26646 26648 28
21319 26646 26649 28
21320 26646 26650 28
21321 26651 26652 28
21322 26651 26653 28
21323 26651 26654 28
21324 26651 26655 28
21325 26656 26657 28
21326 26656 26658 28
21327 26656 26659 28
21328 26656 26660 28
21329 26661 26662 28
21330 26661 26663 28
21331 26661 26664 28
21332 26661 26665 28
21333 26666 26667 28
21334 26666 26668 28
21335 26666 26669 28
21336 26666 26670 28
21337 26671 26672 28
21338 26671 26673 28
21339 26671 26674 28
21340 26671 26675 28
21341 26676 26677 28
21342 26676 26678 28
21343 26676 26679 28
21344 26676 26680 28
21345 26681 26682 28
21346 26681 26683 28
21347 26681 26684 28
21348 26681 26685 28
21349 26686 26687 28
21350 26686 26688 28
21351 26686 26689 28
21352 26686 26690 28
21353 26691 26692 28
21354 26691 26693 28
21355 26691 26694 28
21356 26691 26695 28
21357 26696 26697 28
21358 26696 26698 28
21359 26696 26699 28
21360 26696 26700 28
21361 26701 26702 28
21362 26701 26703 28
21363 26701 26704 28
21364 26701 26705 28
21365 26706 26707 28
21366 26706 26708 28
21367 26706 26709 28
21368 26706 26710 28
21369 26711 26712 28
21370 26711 26713 28
21371 26711 26714 28
21372 26711 26715 28
21373 26716 26717 28
21374 26716 26718 28
21375 26716 26719 28
21376 26716 26720 28
21377 26721 26722 28
21378 26721 26723 28
21379 26721 26724 28
21380 26721 26725 28
21381 26726 26727 28
21382 26726 26728 28
21383 26726 26729 28
21384 26726 26730 28
21385 26731 26732 28
21386 26731 26733 28
21387 26731 26734 28
21388 26731 26735 28
21389 26736 26737 28
21390 26736 26738 28
21391 26736 26739 28
21392 26736 26740 28
21393 26741 26742 28
21394 26741 26743 28
21395 26741 26744 28
21396 26741 26745 28
21397 26746 26747 28
21398 26746 26748 28
21399 26746 26749 28
21400 26746 26750 28
21401 26751 26752 28
21402 26751 26753 28
21403 26751 26754 28
21404 26751 26755 28
21405 26756 26757 28
21406 26756 26758 28
21407 26756 26759 28
21408 26756 26760 28
21409 26761 26762 28
21410 26761 26763 28
21411 26761 26764 28
21412 26761 26765 28
21413 26766 26767 28
21414 26766 26768 28
21415 26766 26769 28
21416 26766 26770 28
21417 26771 26772 28
21418 26771 26773 28
21419 26771 26774 28
21420 26771 26775 28
21421 26776 26777 28
21422 26776 26778 28
21423 26776 26779 28
21424 26776 26780 28
21425 26781 26782 28
21426 26781 26783 28
21427 26781 26784 28
21428 26781 26785 28
21429 26786 26787 28
21430 26786 26788 28
21431 26786 26789 28
21432 26786 26790 28
21433 26791 26792 28
21434 26791 26793 28
21435 26791 26794 28
21436 26791 26795 28
21437 26796 26797 28
21438 26796 26798 28
21439 26796 26799 28
21440 26796 26800 28
21441 26801 26802 28
21442 26801 26803 28
21443 26801 26804 28
21444 26801 26805 28
21445 26806 26807 28
21446 26806 26808 28
21447 26806 26809 28
21448 26806 26810 28
21449 26811 26812 28
21450 26811 26813 28
21451 26811 26814 28
21452 26811 26815 28
21453 26816 26817 28
21454 26816 26818 28
21455 26816 26819 28
21456 26816 26820 28
21457 26821 26822 28
21458 26821 26823 28
21459 26821 26824 28
21460 26821 26825 28
21461 26826 26827 28
21462 26826 26828 28
21463 26826 26829 28
21464 26826 26830 28
21465 26831 26832 28
21466 26831 26833 28
21467 26831 26834 28
21468 26831 26835 28
21469 26836 26837 28
21470 26836 26838 28
21471 26836 26839 28
21472 26836 26840 28
21473 26841 26842 28
21474 26841 26843 28
21475 26841 26844 28
21476 26841 26845 28
21477 26846 26847 28
21478 26846 26848 28
21479 26846 26849 28
21480 26846 26850 28
21481 26851 26852 28
21482 26851 26853 28
21483 26851 26854 28
21484 26851 26855 28
21485 26856 26857 28
21486 26856 26858 28
21487 26856 26859 28
21488 26856 26860 28
21489 26861 26862 28
21490 26861 26863 28
21491 26861 26864 28
21492 26861 26865 28
21493 26866 26867 28
21494 26866 26868 28
21495 26866 26869 28
21496 26866 26870 28
21497 26871 26872 28
21498 26871 26873 28
21499 26871 26874 28
21500 26871 26875 28
21501 26876 26877 28
21502 26876 26878 28
21503 26876 26879 28
21504 26876 26880 28
21505 26881 26882 28
21506 26881 26883 28
21507 26881 26884 28
21508 26881 26885 28
21509 26886 26887 28
21510 26886 26888 28
21511 26886 26889 28
21512 26886 26890 28
21513 26891 26892 28
21514 26891 26893 28
21515 26891 26894 28
21516 26891 26895 28
21517 26896 26897 28
21518 26896 26898 28
21519 26896 26899 28
21520 26896 26900 28
21521 26901 26902 28
21522 26901 26903 28
21523 26901 26904 28
21524 26901 26905 28
21525 26906 26907 28
21526 26906 26908 28
21527 26906 26909 28
21528 26906 26910 28
21529 26911 26912 28
21530 26911 26913 28
21531 26911 26914 28
21532 26911 26915 28
21533 26916 26917 28
21534 26916 26918 28
21535 26916 26919 28
21536 26916 26920 28
21537 26921 26922 28
21538 26921 26923 28
21539 26921 26924 28
21540 26921 26925 28
21541 26926 26927 28
21542 26926 26928 28
21543 26926 26929 28
21544 26926 26930 28
21545 26931 26932 28
21546 26931 26933 28
21547 26931 26934 28
21548 26931 26935 28
21549 26936 26937 28
21550 26936 26938 28
21551 26936 26939 28
21552 26936 26940 28
21553 26941 26942 28
21554 26941 26943 28
21555 26941 26944 28
21556 26941 26945 28
21557 26946 26947 28
21558 26946 26948 28
21559 26946 26949 28
21560 26946 26950 28
21561 26951 26952 28
21562 26951 26953 28
21563 26951 26954 28
21564 26951 26955 28
21565 26956 26957 28
21566 26956 26958 28
21567 26956 26959 28
21568 26956 26960 28
21569 26961 26962 28
21570 26961 26963 28
21571 26961 26964 28
21572 26961 26965 28
21573 26966 26967 28
21574 26966 26968 28
21575 26966 26969 28
21576 26966 26970 28
21577 26971 26972 28
21578 26971 26973 28
21579 26971 26974 28
21580 26971 26975 28
21581 26976 26977 28
21582 26976 26978 28
21583 26976 26979 28
21584 26976 26980 28
21585 26981 26982 28
21586 26981 26983 28
21587 26981 26984 28
21588 26981 26985 28
21589 26986 26987 28
21590 26986 26988 28
21591 26986 26989 28
21592 26986 26990 28
21593 26991 26992 28
21594 26991 26993 28
21595 26991 26994 28
21596 26991 26995 28
21597 26996 26997 28
21598 26996 26998 28
21599 26996 26999 28
21600 26996 27000 28
21601 27001 27002 28
21602 27001 27003 28
21603 27001 27004 28
21604 27001 27005 28
21605 27006 27007 28
21606 27006 27008 28
21607 27006 27009 28
21608 27006 27010 28
21609 27011 27012 28
21610 27011 27013 28
21611 27011 27014 28
21612 27011 27015 28
21613 27016 27017 28
21614 27016 27018 28
21615 27016 27019 28
21616 27016 27020 28
21617 27021 27022 28
21618 27021 27023 28
21619 27021 27024 28
21620 27021 27025 28
21621 27026 27027 28
21622 27026 27028 28
21623 27026 27029 28
21624 27026 27030 28
21625 27031 27032 28
21626 27031 27033 28
21627 27031 27034 28
21628 27031 27035 28
21629 27036 27037 28
21630 27036 27038 28
21631 27036 27039 28
21632 27036 27040 28
21633 27041 27042 28
21634 27041 27043 28
21635 27041 27044 28
21636 27041 27045 28
21637 27046 27047 28
21638 27046 27048 28
21639 27046 27049 28
21640 27046 27050 28
21641 27051 27052 28
21642 27051 27053 28
21643 27051 27054 28
21644 27051 27055 28
21645 27056 27057 28
21646 27056 27058 28
21647 27056 27059 28
21648 27056 27060 28
21649 27061 27062 28
21650 27061 27063 28
21651 27061 27064 28
21652 27061 27065 28
21653 27066 27067 28
21654 27066 27068 28
21655 27066 27069 28
21656 27066 27070 28
21657 27071 27072 28
21658 27071 27073 28
21659 27071 27074 28
21660 27071 27075 28
21661 27076 27077 28
21662 27076 27078 28
21663 27076 27079 28
21664 27076 27080 28
21665 27081 27082 28
21666 27081 27083 28
21667 27081 27084 28
21668 27081 27085 28
21669 27086 27087 28
21670 27086 27088 28
21671 27086 27089 28
21672 27086 27090 28
21673 27091 27092 28
21674 27091 27093 28
21675 27091 27094 28
21676 27091 27095 28
21677 27096 27097 28
21678 27096 27098 28
21679 27096 27099 28
21680 27096 27100 28
21681 27101 27102 28
21682 27101 27103 28
21683 27101 27104 28
21684 27101 27105 28
21685 27106 27107 28
21686 27106 27108 28
21687 27106 27109 28
21688 27106 27110 28
21689 27111 27112 28
21690 27111 27113 28
21691 27111 27114 28
21692 27111 27115 28
21693 27116 27117 28
21694 27116 27118 28
21695 27116 27119 28
21696 27116 27120 28
21697 27121 27122 28
21698 27121 27123 28
21699 27121 27124 28
21700 27121 27125 28
21701 27126 27127 28
21702 27126 27128 28
21703 27126 27129 28
21704 27126 27130 28
21705 27131 27132 28
21706 27131 27133 28
21707 27131 27134 28
21708 27131 27135 28
21709 27136 27137 28
21710 27136 27138 28
21711 27136 27139 28
21712 27136 27140 28
21713 27141 27142 28
21714 27141 27143 28
21715 27141 27144 28
21716 27141 27145 28
21717 27146 27147 28
21718 27146 27148 28
21719 27146 27149 28
21720 27146 27150 28
21721 27151 27152 28
21722 27151 27153 28
21723 27151 27154 28
21724 27151 27155 28
21725 27156 27157 28
21726 27156 27158 28
21727 27156 27159 28
21728 27156 27160 28
21729 27161 27162 28
21730 27161 27163 28
21731 27161 27164 28
21732 27161 27165 28
21733 27166 27167 28
21734 27166 27168 28
21735 27166 27169 28
21736 27166 27170 28
21737 27171 27172 28
21738 27171 27173 28
21739 27171 27174 28
21740 27171 27175 28
21741 27176 27177 28
21742 27176 27178 28
21743 27176 27179 28
21744 27176 27180 28
21745 27181 27182 28
21746 27181 27183 28
21747 27181 27184 28
21748 27181 27185 28
21749 27186 27187 28
21750 27186 27188 28
21751 27186 27189 28
21752 27186 27190 28
21753 27191 27192 28
21754 27191 27193 28
21755 27191 27194 28
21756 27191 27195 28
21757 27196 27197 28
21758 27196 27198 28
21759 27196 27199 28
21760 27196 27200 28
21761 27201 27202 28
21762 27201 27203 28
21763 27201 27204 28
21764 27201 27205 28
21765 27206 27207 28
21766 27206 27208 28
21767 27206 27209 28
21768 27206 27210 28
21769 27211 27212 28
21770 27211 27213 28
21771 27211 27214 28
21772 27211 27215 28
21773 27216 27217 28
21774 27216 27218 28
21775 27216 27219 28
21776 27216 27220 28
21777 27221 27222 28
21778 27221 27223 28
21779 27221 27224 28
21780 27221 27225 28
21781 27226 27227 28
21782 27226 27228 28
21783 27226 27229 28
21784 27226 27230 28
21785 27231 27232 28
21786 27231 27233 28
21787 27231 27234 28
21788 27231 27235 28
21789 27236 27237 28
21790 27236 27238 28
21791 27236 27239 28
21792 27236 27240 28
21793 27241 27242 28
21794 27241 27243 28
21795 27241 27244 28
21796 27241 27245 28
21797 27246 27247 28
21798 27246 27248 28
21799 27246 27249 28
21800 27246 27250 28
21801 27251 27252 28
21802 27251 27253 28
21803 27251 27254 28
21804 27251 27255 28
21805 27256 27257 28
21806 27256 27258 28
21807 27256 27259 28
21808 27256 27260 28
21809 27261 27262 28
21810 27261 27263 28
21811 27261 27264 28
21812 27261 27265 28
21813 27266 27267 28
21814 27266 27268 28
21815 27266 27269 28
21816 27266 27270 28
21817 27271 27272 28
21818 27271 27273 28
21819 27271 27274 28
21820 27271 27275 28
21821 27276 27277 28
21822 27276 27278 28
21823 27276 27279 28
21824 27276 27280 28
21825 27281 27282 28
21826 27281 27283 28
21827 27281 27284 28
21828 27281 27285 28
21829 27286 27287 28
21830 27286 27288 28
21831 27286 27289 28
21832 27286 27290 28
21833 27291 27292 28
21834 27291 27293 28
21835 27291 27294 28
21836 27291 27295 28
21837 27296 27297 28
21838 27296 27298 28
21839 27296 27299 28
21840 27296 27300 28
21841 27301 27302 28
21842 27301 27303 28
21843 27301 27304 28
21844 27301 27305 28
21845 27306 27307 28
21846 27306 27308 28
21847 27306 27309 28
21848 27306 27310 28
21849 27311 27312 28
21850 27311 27313 28
21851 27311 27314 28
21852 27311 27315 28
21853 27316 27317 28
21854 27316 27318 28
21855 27316 27319 28
21856 27316 27320 28
21857 27321 27322 28
21858 27321 27323 28
21859 27321 27324 28
21860 27321 27325 28
21861 27326 27327 28
21862 27326 27328 28
21863 27326 27329 28
21864 27326 27330 28
21865 27331 27332 28
21866 27331 27333 28
21867 27331 27334 28
21868 27331 27335 28
21869 27336 27337 28
21870 27336 27338 28
21871 27336 27339 28
21872 27336 27340 28
21873 27341 27342 28
21874 27341 27343 28
21875 27341 27344 28
21876 27341 27345 28
21877 27346 27347 28
21878 27346 27348 28
21879 27346 27349 28
21880 27346 27350 28
21881 27351 27352 28
21882 27351 27353 28
21883 27351 27354 28
21884 27351 27355 28
21885 27356 27357 28
21886 27356 27358 28
21887 27356 27359 28
21888 27356 27360 28
21889 27361 27362 28
21890 27361 27363 28
21891 27361 27364 28
21892 27361 27365 28
21893 27366 27367 28
21894 27366 27368 28
21895 27366 27369 28
21896 27366 27370 28
21897 27371 27372 28
21898 27371 27373 28
21899 27371 27374 28
21900 27371 27375 28
21901 27376 27377 28
21902 27376 27378 28
21903 27376 27379 28
21904 27376 27380 28
21905 27381 27382 28
21906 27381 27383 28
21907 27381 27384 28
21908 27381 27385 28
21909 27386 27387 28
21910 27386 27388 28
21911 27386 27389 28
21912 27386 27390 28
21913 27391 27392 28
21914 27391 27393 28
21915 27391 27394 28
21916 27391 27395 28
21917 27396 27397 28
21918 27396 27398 28
21919 27396 27399 28
21920 27396 27400 28
21921 27401 27402 28
21922 27401 27403 28
21923 27401 27404 28
21924 27401 27405 28
21925 27406 27407 28
21926 27406 27408 28
21927 27406 27409 28
21928 27406 27410 28
21929 27411 27412 28
21930 27411 27413 28
21931 27411 27414 28
21932 27411 27415 28
21933 27416 27417 28
21934 27416 27418 28
21935 27416 27419 28
21936 27416 27420 28
21937 27421 27422 28
21938 27421 27423 28
21939 27421 27424 28
21940 27421 27425 28
21941 27426 27427 28
21942 27426 27428 28
21943 27426 27429 28
21944 27426 27430 28
21945 27431 27432 28
21946 27431 27433 28
21947 27431 27434 28
21948 27431 27435 28
21949 27436 27437 28
21950 27436 27438 28
21951 27436 27439 28
21952 27436 27440 28
21953 27441 27442 28
21954 27441 27443 28
21955 27441 27444 28
21956 27441 27445 28
21957 27446 27447 28
21958 27446 27448 28
21959 27446 27449 28
21960 27446 27450 28
21961 27451 27452 28
21962 27451 27453 28
21963 27451 27454 28
21964 27451 27455 28
21965 27456 27457 28
21966 27456 27458 28
21967 27456 27459 28
21968 27456 27460 28
21969 27461 27462 28
21970 27461 27463 28
21971 27461 27464 28
21972 27461 27465 28
21973 27466 27467 28
21974 27466 27468 28
21975 27466 27469 28
21976 27466 27470 28
21977 27471 27472 28
21978 27471 27473 28
21979 27471 27474 28
21980 27471 27475 28
21981 27476 27477 28
21982 27476 27478 28
21983 27476 27479 28
21984 27476 27480 28
21985 27481 27482 28
21986 27481 27483 28
21987 27481 27484 28
21988 27481 27485 28
21989 27486 27487 28
21990 27486 27488 28
21991 27486 27489 28
21992 27486 27490 28
21993 27491 27492 28
21994 27491 27493 28
21995 27491 27494 28
21996 27491 27495 28
21997 27496 27497 28
21998 27496 27498 28
21999 27496 27499 28
22000 27496 27500 28
22001 27501 27502 28
22002 27501 27503 28
22003 27501 27504 28
22004 27501 27505 28
22005 27506 27507 28
22006 27506 27508 28
22007 27506 27509 28
22008 27506 27510 28
22009 27511 27512 28
22010 27511 27513 28
22011 27511 27514 28
22012 27511 27515 28
22013 27516 27517 28
22014 27516 27518 28
22015 27516 27519 28
22016 27516 27520 28
22017 27521 27522 28
22018 27521 27523 28
22019 27521 27524 28
22020 27521 27525 28
22021 27526 27527 28
22022 27526 27528 28
22023 27526 27529 28
22024 27526 27530 28
22025 27531 27532 28
22026 27531 27533 28
22027 27531 27534 28
22028 27531 27535 28
22029 27536 27537 28
22030 27536 27538 28
22031 27536 27539 28
22032 27536 27540 28
22033 27541 27542 28
22034 27541 27543 28
22035 27541 27544 28
22036 27541 27545 28
22037 27546 27547 28
22038 27546 27548 28
22039 27546 27549 28
22040 27546 27550 28
22041 27551 27552 28
22042 27551 27553 28
22043 27551 27554 28
22044 27551 27555 28
22045 27556 27557 28
22046 27556 27558 28
22047 27556 27559 28
22048 27556 27560 28
22049 27561 27562 28
22050 27561 27563 28
22051 27561 27564 28
22052 27561 27565 28
22053 27566 27567 28
22054 27566 27568 28
22055 27566 27569 28
22056 27566 27570 28
22057 27571 27572 28
22058 27571 27573 28
22059 27571 27574 28
22060 27571 27575 28
22061 27576 27577 28
22062 27576 27578 28
22063 27576 27579 28
22064 27576 27580 28
22065 27581 27582 28
22066 27581 27583 28
22067 27581 27584 28
22068 27581 27585 28
22069 27586 27587 28
22070 27586 27588 28
22071 27586 27589 28
22072 27586 27590 28
22073 27591 27592 28
22074 27591 27593 28
22075 27591 27594 28
22076 27591 27595 28
22077 27596 27597 28
22078 27596 27598 28
22079 27596 27599 28
22080 27596 27600 28
22081 27601 27602 28
22082 27601 27603 28
22083 27601 27604 28
22084 27601 27605 28
22085 27606 27607 28
22086 27606 27608 28
22087 27606 27609 28
22088 27606 27610 28
22089 27611 27612 28
22090 27611 27613 28
22091 27611 27614 28
22092 27611 27615 28
22093 27616 27617 28
22094 27616 27618 28
22095 27616 27619 28
22096 27616 27620 28
22097 27621 27622 28
22098 27621 27623 28
22099 27621 27624 28
22100 27621 27625 28
22101 27626 27627 28
22102 27626 27628 28
22103 27626 27629 28
22104 27626 27630 28
22105 27631 27632 28
22106 27631 27633 28
22107 27631 27634 28
22108 27631 27635 28
22109 27636 27637 28
22110 27636 27638 28
22111 27636 27639 28
22112 27636 27640 28
22113 27641 27642 28
22114 27641 27643 28
22115 27641 27644 28
22116 27641 27645 28
22117 27646 27647 28
22118 27646 27648 28
22119 27646 27649 28
22120 27646 27650 28
22121 27651 27652 28
22122 27651 27653 28
22123 27651 27654 28
22124 27651 27655 28
22125 27656 27657 28
22126 27656 27658 28
22127 27656 27659 28
22128 27656 27660 28
22129 27661 27662 28
22130 27661 27663 28
22131 27661 27664 28
22132 27661 27665 28
22133 27666 27667 28
22134 27666 27668 28
22135 27666 27669 28
22136 27666 27670 28
22137 27671 27672 28
22138 27671 27673 28
22139 27671 27674 28
22140 27671 27675 28
22141 27676 27677 28
22142 27676 27678 28
22143 27676 27679 28
22144 27676 27680 28
22145 27681 27682 28
22146 27681 27683 28
22147 27681 27684 28
22148 27681 27685 28
22149 27686 27687 28
22150 27686 27688 28
22151 27686 27689 28
22152 27686 27690 28
22153 27691 27692 28
22154 27691 27693 28
22155 27691 27694 28
22156 27691 27695 28
22157 27696 27697 28
22158 27696 27698 28
22159 27696 27699 28
22160 27696 27700 28
22161 27701 27702 28
22162 27701 27703 28
22163 27701 27704 28
22164 27701 27705 28
22165 27706 27707 28
22166 27706 27708 28
22167 27706 27709 28
22168 27706 27710 28
22169 27711 27712 28
22170 27711 27713 28
22171 27711 27714 28
22172 27711 27715 28
22173 27716 27717 28
22174 27716 27718 28
22175 27716 27719 28
22176 27716 27720 28
22177 27721 27722 28
22178 27721 27723 28
22179 27721 27724 28
22180 27721 27725 28
22181 27726 27727 28
22182 27726 27728 28
22183 27726 27729 28
22184 27726 27730 28
22185 27731 27732 28
22186 27731 27733 28
22187 27731 27734 28
22188 27731 27735 28
22189 27736 27737 28
22190 27736 27738 28
22191 27736 27739 28
22192 27736 27740 28
22193 27741 27742 28
22194 27741 27743 28
22195 27741 27744 28
22196 27741 27745 28
22197 27746 27747 28
22198 27746 27748 28
22199 27746 27749 28
22200 27746 27750 28
22201 27751 27752 28
22202 27751 27753 28
22203 27751 27754 28
22204 27751 27755 28
22205 27756 27757 28
22206 27756 27758 28
22207 27756 27759 28
22208 27756 27760 28
22209 27761 27762 28
22210 27761 27763 28
22211 27761 27764 28
22212 27761 27765 28
22213 27766 27767 28
22214 27766 27768 28
22215 27766 27769 28
22216 27766 27770 28
22217 27771 27772 28
22218 27771 27773 28
22219 27771 27774 28
22220 27771 27775 28
22221 27776 27777 28
22222 27776 27778 28
22223 27776 27779 28
22224 27776 27780 28
22225 27781 27782 28
22226 27781 27783 28
22227 27781 27784 28
22228 27781 27785 28
22229 27786 27787 28
22230 27786 27788 28
22231 27786 27789 28
22232 27786 27790 28
22233 27791 27792 28
22234 27791 27793 28
22235 27791 27794 28
22236 27791 27795 28
22237 27796 27797 28
22238 27796 27798 28
22239 27796 27799 28
22240 27796 27800 28
22241 27801 27802 28
22242 27801 27803 28
22243 27801 27804 28
22244 27801 27805 28
22245 27806 27807 28
22246 27806 27808 28
22247 27806 27809 28
22248 27806 27810 28
22249 27811 27812 28
22250 27811 27813 28
22251 27811 27814 28
22252 27811 27815 28
22253 27816 27817 28
22254 27816 27818 28
22255 27816 27819 28
22256 27816 27820 28
22257 27821 27822 28
22258 27821 27823 28
22259 27821 27824 28
22260 27821 27825 28
22261 27826 27827 28
22262 27826 27828 28
22263 27826 27829 28
22264 27826 27830 28
22265 27831 27832 28
22266 27831 27833 28
22267 27831 27834 28
22268 27831 27835 28
22269 27836 27837 28
22270 27836 27838 28
22271 27836 27839 28
22272 27836 27840 28
22273 27841 27842 28
22274 27841 27843 28
22275 27841 27844 28
22276 27841 27845 28
22277 27846 27847 28
22278 27846 27848 28
22279 27846 27849 28
22280 27846 27850 28
22281 27851 27852 28
22282 27851 27853 28
22283 27851 27854 28
22284 27851 27855 28
22285 27856 27857 28
22286 27856 27858 28
22287 27856 27859 28
22288 27856 27860 28
22289 27861 27862 28
22290 27861 27863 28
22291 27861 27864 28
22292 27861 27865 28
22293 27866 27867 28
22294 27866 27868 28
22295 27866 27869 28
22296 27866 27870 28
22297 27871 27872 28
22298 27871 27873 28
22299 27871 27874 28
22300 27871 27875 28
22301 27876 27877 28
22302 27876 27878 28
22303 27876 27879 28
22304 27876 27880 28
22305 27881 27882 28
22306 27881 27883 28
22307 27881 27884 28
22308 27881 27885 28
22309 27886 27887 28
22310 27886 27888 28
22311 27886 27889 28
22312 27886 27890 28
22313 27891 27892 28
22314 27891 27893 28
22315 27891 27894 28
22316 27891 27895 28
22317 27896 27897 28
22318 27896 27898 28
22319 27896 27899 28
22320 27896 27900 28
22321 27901 27902 28
22322 27901 27903 28
22323 27901 27904 28
22324 27901 27905 28
22325 27906 27907 28
22326 27906 27908 28
22327 27906 27909 28
22328 27906 27910 28
22329 27911 27912 28
22330 27911 27913 28
22331 27911 27914 28
22332 27911 27915 28
22333 27916 27917 28
22334 27916 27918 28
22335 27916 27919 28
22336 27916 27920 28
22337 27921 27922 28
22338 27921 27923 28
22339 27921 27924 28
22340 27921 27925 28
22341 27926 27927 28
22342 27926 27928 28
22343 27926 27929 28
22344 27926 27930 28
22345 27931 27932 28
22346 27931 27933 28
22347 27931 27934 28
22348 27931 27935 28
22349 27936 27937 28
22350 27936 27938 28
22351 27936 27939 28
22352 27936 27940 28
22353 27941 27942 28
22354 27941 27943 28
22355 27941 27944 28
22356 27941 27945 28
22357 27946 27947 28
22358 27946 27948 28
22359 27946 27949 28
22360 27946 27950 28
22361 27951 27952 28
22362 27951 27953 28
22363 27951 27954 28
22364 27951 27955 28
22365 27956 27957 28
22366 27956 27958 28
22367 27956 27959 28
22368 27956 27960 28
22369 27961 27962 28
22370 27961 27963 28
22371 27961 27964 28
22372 27961 27965 28
22373 27966 27967 28
22374 27966 27968 28
22375 27966 27969 28
22376 27966 27970 28
22377 27971 27972 28
22378 27971 27973 28
22379 27971 27974 28
22380 27971 27975 28
22381 27976 27977 28
22382 27976 27978 28
22383 27976 27979 28
22384 27976 27980 28
22385 27981 27982 28
22386 27981 27983 28
22387 27981 27984 28
22388 27981 27985 28
22389 27986 27987 28
22390 27986 27988 28
22391 27986 27989 28
22392 27986 27990 28
22393 27991 27992 28
22394 27991 27993 28
22395 27991 27994 28
22396 27991 27995 28
22397 27996 27997 28
22398 27996 27998 28
22399 27996 27999 28
22400 27996 28000 28
22401 28001 28002 28
22402 28001 28003 28
22403 28001 28004 28
22404 28001 28005 28
22405 28006 28007 28
22406 28006 28008 28
22407 28006 28009 28
22408 28006 28010 28
22409 28011 28012 28
22410 28011 28013 28
22411 28011 28014 28
22412 28011 28015 28
22413 28016 28017 28
22414 28016 28018 28
22415 28016 28019 28
22416 28016 28020 28
22417 28021 28022 28
22418 28021 28023 28
22419 28021 28024 28
22420 28021 28025 28
22421 28026 28027 28
22422 28026 28028 28
22423 28026 28029 28
22424 28026 28030 28
22425 28031 28032 28
22426 28031 28033 28
22427 28031 28034 28
22428 28031 28035 28
22429 28036 28037 28
22430 28036 28038 28
22431 28036 28039 28
22432 28036 28040 28
22433 28041 28042 28
22434 28041 28043 28
22435 28041 28044 28
22436 28041 28045 28
22437 28046 28047 28
22438 28046 28048 28
22439 28046 28049 28
22440 28046 28050 28
22441 28051 28052 28
22442 28051 28053 28
22443 28051 28054 28
22444 28051 28055 28
22445 28056 28057 28
22446 28056 28058 28
22447 28056 28059 28
22448 28056 28060 28
22449 28061 28062 28
22450 28061 28063 28
22451 28061 28064 28
22452 28061 28065 28
22453 28066 28067 28
22454 28066 28068 28
22455 28066 28069 28
22456 28066 28070 28
22457 28071 28072 28
22458 28071 28073 28
22459 28071 28074 28
22460 28071 28075 28
22461 28076 28077 28
22462 28076 28078 28
22463 28076 28079 28
22464 28076 28080 28
22465 28081 28082 28
22466 28081 28083 28
22467 28081 28084 28
22468 28081 28085 28
22469 28086 28087 28
22470 28086 28088 28
22471 28086 28089 28
22472 28086 28090 28
22473 28091 28092 28
22474 28091 28093 28
22475 28091 28094 28
22476 28091 28095 28
22477 28096 28097 28
22478 28096 28098 28
22479 28096 28099 28
22480 28096 28100 28
22481 28101 28102 28
22482 28101 28103 28
22483 28101 28104 28
22484 28101 28105 28
22485 28106 28107 28
22486 28106 28108 28
22487 28106 28109 28
22488 28106 28110 28
22489 28111 28112 28
22490 28111 28113 28
22491 28111 28114 28
22492 28111 28115 28
22493 28116 28117 28
22494 28116 28118 28
22495 28116 28119 28
22496 28116 28120 28
22497 28121 28122 28
22498 28121 28123 28
22499 28121 28124 28
22500 28121 28125 28
22501 28126 28127 28
22502 28126 28128 28
22503 28126 28129 28
22504 28126 28130 28
22505 28131 28132 28
22506 28131 28133 28
22507 28131 28134 28
22508 28131 28135 28
22509 28136 28137 28
22510 28136 28138 28
22511 28136 28139 28
22512 28136 28140 28
22513 28141 28142 28
22514 28141 28143 28
22515 28141 28144 28
22516 28141 28145 28
22517 28146 28147 28
22518 28146 28148 28
22519 28146 28149 28
22520 28146 28150 28
22521 28151 28152 28
22522 28151 28153 28
22523 28151 28154 28
22524 28151 28155 28
22525 28156 28157 28
22526 28156 28158 28
22527 28156 28159 28
22528 28156 28160 28
22529 28161 28162 28
22530 28161 28163 28
22531 28161 28164 28
22532 28161 28165 28
22533 28166 28167 28
22534 28166 28168 28
22535 28166 28169 28
22536 28166 28170 28
22537 28171 28172 28
22538 28171 28173 28
22539 28171 28174 28
22540 28171 28175 28
22541 28176 28177 28
22542 28176 28178 28
22543 28176 28179 28
22544 28176 28180 28
22545 28181 28182 28
22546 28181 28183 28
22547 28181 28184 28
22548 28181 28185 28
22549 28186 28187 28
22550 28186 28188 28
22551 28186 28189 28
22552 28186 28190 28
22553 28191 28192 28
22554 28191 28193 28
22555 28191 28194 28
22556 28191 28195 28
22557 28196 28197 28
22558 28196 28198 28
22559 28196 28199 28
22560 28196 28200 28
22561 28201 28202 28
22562 28201 28203 28
22563 28201 28204 28
22564 28201 28205 28
22565 28206 28207 28
22566 28206 28208 28
22567 28206 28209 28
22568 28206 28210 28
22569 28211 28212 28
22570 28211 28213 28
22571 28211 28214 28
22572 28211 28215 28
22573 28216 28217 28
22574 28216 28218 28
22575 28216 28219 28
22576 28216 28220 28
22577 28221 28222 28
22578 28221 28223 28
22579 28221 28224 28
22580 28221 28225 28
22581 28226 28227 28
22582 28226 28228 28
22583 28226 28229 28
22584 28226 28230 28
22585 28231 28232 28
22586 28231 28233 28
22587 28231 28234 28
22588 28231 28235 28
22589 28236 28237 28
22590 28236 28238 28
22591 28236 28239 28
22592 28236 28240 28
22593 28241 28242 28
22594 28241 28243 28
22595 28241 28244 28
22596 28241 28245 28
22597 28246 28247 28
22598 28246 28248 28
22599 28246 28249 28
22600 28246 28250 28
22601 28251 28252 28
22602 28251 28253 28
22603 28251 28254 28
22604 28251 28255 28
22605 28256 28257 28
22606 28256 28258 28
22607 28256 28259 28
22608 28256 28260 28
22609 28261 28262 28
22610 28261 28263 28
22611 28261 28264 28
22612 28261 28265 28
22613 28266 28267 28
22614 28266 28268 28
22615 28266 28269 28
22616 28266 28270 28
22617 28271 28272 28
22618 28271 28273 28
22619 28271 28274 28
22620 28271 28275 28
22621 28276 28277 28
22622 28276 28278 28
22623 28276 28279 28
22624 28276 28280 28
22625 28281 28282 28
22626 28281 28283 28
22627 28281 28284 28
22628 28281 28285 28
22629 28286 28287 28
22630 28286 28288 28
22631 28286 28289 28
22632 28286 28290 28
22633 28291 28292 28
22634 28291 28293 28
22635 28291 28294 28
22636 28291 28295 28
22637 28296 28297 28
22638 28296 28298 28
22639 28296 28299 28
22640 28296 28300 28
22641 28301 28302 28
22642 28301 28303 28
22643 28301 28304 28
22644 28301 28305 28
22645 28306 28307 28
22646 28306 28308 28
22647 28306 28309 28
22648 28306 28310 28
22649 28311 28312 28
22650 28311 28313 28
22651 28311 28314 28
22652 28311 28315 28
22653 28316 28317 28
22654 28316 28318 28
22655 28316 28319 28
22656 28316 28320 28
22657 28321 28322 28
22658 28321 28323 28
22659 28321 28324 28
22660 28321 28325 28
22661 28326 28327 28
22662 28326 28328 28
22663 28326 28329 28
22664 28326 28330 28
22665 28331 28332 28
22666 28331 28333 28
22667 28331 28334 28
22668 28331 28335 28
22669 28336 28337 28
22670 28336 28338 28
22671 28336 28339 28
22672 28336 28340 28
22673 28341 28342 28
22674 28341 28343 28
22675 28341 28344 28
22676 28341 28345 28
22677 28346 28347 28
22678 28346 28348 28
22679 28346 28349 28
22680 28346 28350 28
22681 28351 28352 28
22682 28351 28353 28
22683 28351 28354 28
22684 28351 28355 28
22685 28356 28357 28
22686 28356 28358 28
22687 28356 28359 28
22688 28356 28360 28
22689 28361 28362 28
22690 28361 28363 28
22691 28361 28364 28
22692 28361 28365 28
22693 28366 28367 28
22694 28366 28368 28
22695 28366 28369 28
22696 28366 28370 28
22697 28371 28372 28
22698 28371 28373 28
22699 28371 28374 28
22700 28371 28375 28
22701 28376 28377 28
22702 28376 28378 28
22703 28376 28379 28
22704 28376 28380 28
22705 28381 28382 28
22706 28381 28383 28
22707 28381 28384 28
22708 28381 28385 28
22709 28386 28387 28
22710 28386 28388 28
22711 28386 28389 28
22712 28386 28390 28
22713 28391 28392 28
22714 28391 28393 28
22715 28391 28394 28
22716 28391 28395 28
22717 28396 28397 28
22718 28396 28398 28
22719 28396 28399 28
22720 28396 28400 28
22721 28401 28402 28
22722 28401 28403 28
22723 28401 28404 28
22724 28401 28405 28
22725 28406 28407 28
22726 28406 28408 28
22727 28406 28409 28
22728 28406 28410 28
22729 28411 28412 28
22730 28411 28413 28
22731 28411 28414 28
22732 28411 28415 28
22733 28416 28417 28
22734 28416 28418 28
22735 28416 28419 28
22736 28416 28420 28
22737 28421 28422 28
22738 28421 28423 28
22739 28421 28424 28
22740 28421 28425 28
22741 28426 28427 28
22742 28426 28428 28
22743 28426 28429 28
22744 28426 28430 28
22745 28431 28432 28
22746 28431 28433 28
22747 28431 28434 28
22748 28431 28435 28
22749 28436 28437 28
22750 28436 28438 28
22751 28436 28439 28
22752 28436 28440 28
22753 28441 28442 28
22754 28441 28443 28
22755 28441 28444 28
22756 28441 28445 28
22757 28446 28447 28
22758 28446 28448 28
22759 28446 28449 28
22760 28446 28450 28
22761 28451 28452 28
22762 28451 28453 28
22763 28451 28454 28
22764 28451 28455 28
22765 28456 28457 28
22766 28456 28458 28
22767 28456 28459 28
22768 28456 28460 28
22769 28461 28462 28
22770 28461 28463 28
22771 28461 28464 28
22772 28461 28465 28
22773 28466 28467 28
22774 28466 28468 28
22775 28466 28469 28
22776 28466 28470 28
22777 28471 28472 28
22778 28471 28473 28
22779 28471 28474 28
22780 28471 28475 28
22781 28476 28477 28
22782 28476 28478 28
22783 28476 28479 28
22784 28476 28480 28
22785 28481 28482 28
22786 28481 28483 28
22787 28481 28484 28
22788 28481 28485 28
22789 28486 28487 28
22790 28486 28488 28
22791 28486 28489 28
22792 28486 28490 28
22793 28491 28492 28
22794 28491 28493 28
22795 28491 28494 28
22796 28491 28495 28
22797 28496 28497 28
22798 28496 28498 28
22799 28496 28499 28
22800 28496 28500 28
22801 28501 28502 28
22802 28501 28503 28
22803 28501 28504 28
22804 28501 28505 28
22805 28506 28507 28
22806 28506 28508 28
22807 28506 28509 28
22808 28506 28510 28
22809 28511 28512 28
22810 28511 28513 28
22811 28511 28514 28
22812 28511 28515 28
22813 28516 28517 28
22814 28516 28518 28
22815 28516 28519 28
22816 28516 28520 28
22817 28521 28522 28
22818 28521 28523 28
22819 28521 28524 28
22820 28521 28525 28
22821 28526 28527 28
22822 28526 28528 28
22823 28526 28529 28
22824 28526 28530 28
22825 28531 28532 28
22826 28531 28533 28
22827 28531 28534 28
22828 28531 28535 28
22829 28536 28537 28
22830 28536 28538 28
22831 28536 28539 28
22832 28536 28540 28
22833 28541 28542 28
22834 28541 28543 28
22835 28541 28544 28
22836 28541 28545 28
22837 28546 28547 28
22838 28546 28548 28
22839 28546 28549 28
22840 28546 28550 28
22841 28551 28552 28
22842 28551 28553 28
22843 28551 28554 28
22844 28551 28555 28
22845 28556 28557 28
22846 28556 28558 28
22847 28556 28559 28
22848 28556 28560 28
22849 28561 28562 28
22850 28561 28563 28
22851 28561 28564 28
22852 28561 28565 28
22853 28566 28567 28
22854 28566 28568 28
22855 28566 28569 28
22856 28566 28570 28
22857 28571 28572 28
22858 28571 28573 28
22859 28571 28574 28
22860 28571 28575 28
22861 28576 28577 28
22862 28576 28578 28
22863 28576 28579 28
22864 28576 28580 28
22865 28581 28582 28
22866 28581 28583 28
22867 28581 28584 28
22868 28581 28585 28
22869 28586 28587 28
22870 28586 28588 28
22871 28586 28589 28
22872 28586 28590 28
22873 28591 28592 28
22874 28591 28593 28
22875 28591 28594 28
22876 28591 28595 28
22877 28596 28597 28
22878 28596 28598 28
22879 28596 28599 28
22880 28596 28600 28
22881 28601 28602 28
22882 28601 28603 28
22883 28601 28604 28
22884 28601 28605 28
22885 28606 28607 28
22886 28606 28608 28
22887 28606 28609 28
22888 28606 28610 28
22889 28611 28612 28
22890 28611 28613 28
22891 28611 28614 28
22892 28611 28615 28
22893 28616 28617 28
22894 28616 28618 28
22895 28616 28619 28
22896 28616 28620 28
22897 28621 28622 28
22898 28621 28623 28
22899 28621 28624 28
22900 28621 28625 28
22901 28626 28627 28
22902 28626 28628 28
22903 28626 28629 28
22904 28626 28630 28
22905 28631 28632 28
22906 28631 28633 28
22907 28631 28634 28
22908 28631 28635 28
22909 28636 28637 28
22910 28636 28638 28
22911 28636 28639 28
22912 28636 28640 28
22913 28641 28642 28
22914 28641 28643 28
22915 28641 28644 28
22916 28641 28645 28
22917 28646 28647 28
22918 28646 28648 28
22919 28646 28649 28
22920 28646 28650 28
22921 28651 28652 28
22922 28651 28653 28
22923 28651 28654 28
22924 28651 28655 28
22925 28656 28657 28
22926 28656 28658 28
22927 28656 28659 28
22928 28656 28660 28
22929 28661 28662 28
22930 28661 28663 28
22931 28661 28664 28
22932 28661 28665 28
22933 28666 28667 28
22934 28666 28668 28
22935 28666 28669 28
22936 28666 28670 28
22937 28671 28672 28
22938 28671 28673 28
22939 28671 28674 28
22940 28671 28675 28
22941 28676 28677 28
22942 28676 28678 28
22943 28676 28679 28
22944 28676 28680 28
22945 28681 28682 28
22946 28681 28683 28
22947 28681 28684 28
22948 28681 28685 28
22949 28686 28687 28
22950 28686 28688 28
22951 28686 28689 28
22952 28686 28690 28
22953 28691 28692 28
22954 28691 28693 28
22955 28691 28694 28
22956 28691 28695 28
22957 28696 28697 28
22958 28696 28698 28
22959 28696 28699 28
22960 28696 28700 28
22961 28701 28702 28
22962 28701 28703 28
22963 28701 28704 28
22964 28701 28705 28
22965 28706 28707 28
22966 28706 28708 28
22967 28706 28709 28
22968 28706 28710 28
22969 28711 28712 28
22970 28711 28713 28
22971 28711 28714 28
22972 28711 28715 28
22973 28716 28717 28
22974 28716 28718 28
22975 28716 28719 28
22976 28716 28720 28
22977 28721 28722 28
22978 28721 28723 28
22979 28721 28724 28
22980 28721 28725 28
22981 28726 28727 28
22982 28726 28728 28
22983 28726 28729 28
22984 28726 28730 28
22985 28731 28732 28
22986 28731 28733 28
22987 28731 28734 28
22988 28731 28735 28
22989 28736 28737 28
22990 28736 28738 28
22991 28736 28739 28
22992 28736 28740 28
22993 28741 28742 28
22994 28741 28743 28
22995 28741 28744 28
22996 28741 28745 28
22997 28746 28747 28
22998 28746 28748 28
22999 28746 28749 28
23000 28746 28750 28
23001 28751 28752 28
23002 28751 28753 28
23003 28751 28754 28
23004 28751 28755 28
23005 28756 28757 28
23006 28756 28758 28
23007 28756 28759 28
23008 28756 28760 28
23009 28761 28762 28
23010 28761 28763 28
23011 28761 28764 28
23012 28761 28765 28
23013 28766 28767 28
23014 28766 28768 28
23015 28766 28769 28
23016 28766 28770 28
23017 28771 28772 28
23018 28771 28773 28
23019 28771 28774 28
23020 28771 28775 28
23021 28776 28777 28
23022 28776 28778 28
23023 28776 28779 28
23024 28776 28780 28
23025 28781 28782 28
23026 28781 28783 28
23027 28781 28784 28
23028 28781 28785 28
23029 28786 28787 28
23030 28786 28788 28
23031 28786 28789 28
23032 28786 28790 28
23033 28791 28792 28
23034 28791 28793 28
23035 28791 28794 28
23036 28791 28795 28
23037 28796 28797 28
23038 28796 28798 28
23039 28796 28799 28
23040 28796 28800 28
23041 28801 28802 28
23042 28801 28803 28
23043 28801 28804 28
23044 28801 28805 28
23045 28806 28807 28
23046 28806 28808 28
23047 28806 28809 28
23048 28806 28810 28
23049 28811 28812 28
23050 28811 28813 28
23051 28811 28814 28
23052 28811 28815 28
23053 28816 28817 28
23054 28816 28818 28
23055 28816 28819 28
23056 28816 28820 28
23057 28821 28822 28
23058 28821 28823 28
23059 28821 28824 28
23060 28821 28825 28
23061 28826 28827 28
23062 28826 28828 28
23063 28826 28829 28
23064 28826 28830 28
23065 28831 28832 28
23066 28831 28833 28
23067 28831 28834 28
23068 28831 28835 28
23069 28836 28837 28
23070 28836 28838 28
23071 28836 28839 28
23072 28836 28840 28
23073 28841 28842 28
23074 28841 28843 28
23075 28841 28844 28
23076 28841 28845 28
23077 28846 28847 28
23078 28846 28848 28
23079 28846 28849 28
23080 28846 28850 28
23081 28851 28852 28
23082 28851 28853 28
23083 28851 28854 28
23084 28851 28855 28
23085 28856 28857 28
23086 28856 28858 28
23087 28856 28859 28
23088 28856 28860 28
23089 28861 28862 28
23090 28861 28863 28
23091 28861 28864 28
23092 28861 28865 28
23093 28866 28867 28
23094 28866 28868 28
23095 28866 28869 28
23096 28866 28870 28
23097 28871 28872 28
23098 28871 28873 28
23099 28871 28874 28
23100 28871 28875 28
23101 28876 28877 28
23102 28876 28878 28
23103 28876 28879 28
23104 28876 28880 28
23105 28881 28882 28
23106 28881 28883 28
23107 28881 28884 28
23108 28881 28885 28
23109 28886 28887 28
23110 28886 28888 28
23111 28886 28889 28
23112 28886 28890 28
23113 28891 28892 28
23114 28891 28893 28
23115 28891 28894 28
23116 28891 28895 28
23117 28896 28897 28
23118 28896 28898 28
23119 28896 28899 28
23120 28896 28900 28
23121 28901 28902 28
23122 28901 28903 28
23123 28901 28904 28
23124 28901 28905 28
23125 28906 28907 28
23126 28906 28908 28
23127 28906 28909 28
23128 28906 28910 28
23129 28911 28912 28
23130 28911 28913 28
23131 28911 28914 28
23132 28911 28915 28
23133 28916 28917 28
23134 28916 28918 28
23135 28916 28919 28
23136 28916 28920 28
23137 28921 28922 28
23138 28921 28923 28
23139 28921 28924 28
23140 28921 28925 28
23141 28926 28927 28
23142 28926 28928 28
23143 28926 28929 28
23144 28926 28930 28
23145 28931 28932 28
23146 28931 28933 28
23147 28931 28934 28
23148 28931 28935 28
23149 28936 28937 28
23150 28936 28938 28
23151 28936 28939 28
23152 28936 28940 28
23153 28941 28942 28
23154 28941 28943 28
23155 28941 28944 28
23156 28941 28945 28
23157 28946 28947 28
23158 28946 28948 28
23159 28946 28949 28
23160 28946 28950 28
23161 28951 28952 28
23162 28951 28953 28
23163 28951 28954 28
23164 28951 28955 28
23165 28956 28957 28
23166 28956 28958 28
23167 28956 28959 28
23168 28956 28960 28
23169 28961 28962 28
23170 28961 28963 28
23171 28961 28964 28
23172 28961 28965 28
23173 28966 28967 28
23174 28966 28968 28
23175 28966 28969 28
23176 28966 28970 28
23177 28971 28972 28
23178 28971 28973 28
23179 28971 28974 28
23180 28971 28975 28
23181 28976 28977 28
23182 28976 28978 28
23183 28976 28979 28
23184 28976 28980 28
23185 28981 28982 28
23186 28981 28983 28
23187 28981 28984 28
23188 28981 28985 28
23189 28986 28987 28
23190 28986 28988 28
23191 28986 28989 28
23192 28986 28990 28
23193 28991 28992 28
23194 28991 28993 28
23195 28991 28994 28
23196 28991 28995 28
23197 28996 28997 28
23198 28996 28998 28
23199 28996 28999 28
23200 28996 29000 28
23201 29001 29002 28
23202 29001 29003 28
23203 29001 29004 28
23204 29001 29005 28
23205 29006 29007 28
23206 29006 29008 28
23207 29006 29009 28
23208 29006 29010 28
23209 29011 29012 28
23210 29011 29013 28
23211 29011 29014 28
23212 29011 29015 28
23213 29016 29017 28
23214 29016 29018 28
23215 29016 29019 28
23216 29016 29020 28
23217 29021 29022 28
23218 29021 29023 28
23219 29021 29024 28
23220 29021 29025 28
23221 29026 29027 28
23222 29026 29028 28
23223 29026 29029 28
23224 29026 29030 28
23225 29031 29032 28
23226 29031 29033 28
23227 29031 29034 28
23228 29031 29035 28
23229 29036 29037 28
23230 29036 29038 28
23231 29036 29039 28
23232 29036 29040 28
23233 29041 29042 28
23234 29041 29043 28
23235 29041 29044 28
23236 29041 29045 28
23237 29046 29047 28
23238 29046 29048 28
23239 29046 29049 28
23240 29046 29050 28
23241 29051 29052 28
23242 29051 29053 28
23243 29051 29054 28
23244 29051 29055 28
23245 29056 29057 28
23246 29056 29058 28
23247 29056 29059 28
23248 29056 29060 28
23249 29061 29062 28
23250 29061 29063 28
23251 29061 29064 28
23252 29061 29065 28
23253 29066 29067 28
23254 29066 29068 28
23255 29066 29069 28
23256 29066 29070 28
23257 29071 29072 28
23258 29071 29073 28
23259 29071 29074 28
23260 29071 29075 28
23261 29076 29077 28
23262 29076 29078 28
23263 29076 29079 28
23264 29076 29080 28
23265 29081 29082 28
23266 29081 29083 28
23267 29081 29084 28
23268 29081 29085 28
23269 29086 29087 28
23270 29086 29088 28
23271 29086 29089 28
23272 29086 29090 28
23273 29091 29092 28
23274 29091 29093 28
23275 29091 29094 28
23276 29091 29095 28
23277 29096 29097 28
23278 29096 29098 28
23279 29096 29099 28
23280 29096 29100 28
23281 29101 29102 28
23282 29101 29103 28
23283 29101 29104 28
23284 29101 29105 28
23285 29106 29107 28
23286 29106 29108 28
23287 29106 29109 28
23288 29106 29110 28
23289 29111 29112 28
23290 29111 29113 28
23291 29111 29114 28
23292 29111 29115 28
23293 29116 29117 28
23294 29116 29118 28
23295 29116 29119 28
23296 29116 29120 28
23297 29121 29122 28
23298 29121 29123 28
23299 29121 29124 28
23300 29121 29125 28
23301 29126 29127 28
23302 29126 29128 28
23303 29126 29129 28
23304 29126 29130 28
23305 29131 29132 28
23306 29131 29133 28
23307 29131 29134 28
23308 29131 29135 28
23309 29136 29137 28
23310 29136 29138 28
23311 29136 29139 28
23312 29136 29140 28
23313 29141 29142 28
23314 29141 29143 28
23315 29141 29144 28
23316 29141 29145 28
23317 29146 29147 28
23318 29146 29148 28
23319 29146 29149 28
23320 29146 29150 28
23321 29151 29152 28
23322 29151 29153 28
23323 29151 29154 28
23324 29151 29155 28
23325 29156 29157 28
23326 29156 29158 28
23327 29156 29159 28
23328 29156 29160 28
23329 29161 29162 28
23330 29161 29163 28
23331 29161 29164 28
23332 29161 29165 28
23333 29166 29167 28
23334 29166 29168 28
23335 29166 29169 28
23336 29166 29170 28
23337 29171 29172 28
23338 29171 29173 28
23339 29171 29174 28
23340 29171 29175 28
23341 29176 29177 28
23342 29176 29178 28
23343 29176 29179 28
23344 29176 29180 28
23345 29181 29182 28
23346 29181 29183 28
23347 29181 29184 28
23348 29181 29185 28
23349 29186 29187 28
23350 29186 29188 28
23351 29186 29189 28
23352 29186 29190 28
23353 29191 29192 28
23354 29191 29193 28
23355 29191 29194 28
23356 29191 29195 28
23357 29196 29197 28
23358 29196 29198 28
23359 29196 29199 28
23360 29196 29200 28
23361 29201 29202 28
23362 29201 29203 28
23363 29201 29204 28
23364 29201 29205 28
23365 29206 29207 28
23366 29206 29208 28
23367 29206 29209 28
23368 29206 29210 28
23369 29211 29212 28
23370 29211 29213 28
23371 29211 29214 28
23372 29211 29215 28
23373 29216 29217 28
23374 29216 29218 28
23375 29216 29219 28
23376 29216 29220 28
23377 29221 29222 28
23378 29221 29223 28
23379 29221 29224 28
23380 29221 29225 28
23381 29226 29227 28
23382 29226 29228 28
23383 29226 29229 28
23384 29226 29230 28
23385 29231 29232 28
23386 29231 29233 28
23387 29231 29234 28
23388 29231 29235 28
23389 29236 29237 28
23390 29236 29238 28
23391 29236 29239 28
23392 29236 29240 28
23393 29241 29242 28
23394 29241 29243 28
23395 29241 29244 28
23396 29241 29245 28
23397 29246 29247 28
23398 29246 29248 28
23399 29246 29249 28
23400 29246 29250 28
23401 29251 29252 28
23402 29251 29253 28
23403 29251 29254 28
23404 29251 29255 28
23405 29256 29257 28
23406 29256 29258 28
23407 29256 29259 28
23408 29256 29260 28
23409 29261 29262 28
23410 29261 29263 28
23411 29261 29264 28
23412 29261 29265 28
23413 29266 29267 28
23414 29266 29268 28
23415 29266 29269 28
23416 29266 29270 28
23417 29271 29272 28
23418 29271 29273 28
23419 29271 29274 28
23420 29271 29275 28
23421 29276 29277 28
23422 29276 29278 28
23423 29276 29279 28
23424 29276 29280 28
23425 29281 29282 28
23426 29281 29283 28
23427 29281 29284 28
23428 29281 29285 28
23429 29286 29287 28
23430 29286 29288 28
23431 29286 29289 28
23432 29286 29290 28
23433 29291 29292 28
23434 29291 29293 28
23435 29291 29294 28
23436 29291 29295 28
23437 29296 29297 28
23438 29296 29298 28
23439 29296 29299 28
23440 29296 29300 28
23441 29301 29302 28
23442 29301 29303 28
23443 29301 29304 28
23444 29301 29305 28
23445 29306 29307 28
23446 29306 29308 28
23447 29306 29309 28
23448 29306 29310 28
23449 29311 29312 28
23450 29311 29313 28
23451 29311 29314 28
23452 29311 29315 28
23453 29316 29317 28
23454 29316 29318 28
23455 29316 29319 28
23456 29316 29320 28
23457 29321 29322 28
23458 29321 29323 28
23459 29321 29324 28
23460 29321 29325 28
23461 29326 29327 28
23462 29326 29328 28
23463 29326 29329 28
23464 29326 29330 28
23465 29331 29332 28
23466 29331 29333 28
23467 29331 29334 28
23468 29331 29335 28
23469 29336 29337 28
23470 29336 29338 28
23471 29336 29339 28
23472 29336 29340 28
23473 29341 29342 28
23474 29341 29343 28
23475 29341 29344 28
23476 29341 29345 28
23477 29346 29347 28
23478 29346 29348 28
23479 29346 29349 28
23480 29346 29350 28
23481 29351 29352 28
23482 29351 29353 28
23483 29351 29354 28
23484 29351 29355 28
23485 29356 29357 28
23486 29356 29358 28
23487 29356 29359 28
23488 29356 29360 28
23489 29361 29362 28
23490 29361 29363 28
23491 29361 29364 28
23492 29361 29365 28
23493 29366 29367 28
23494 29366 29368 28
23495 29366 29369 28
23496 29366 29370 28
23497 29371 29372 28
23498 29371 29373 28
23499 29371 29374 28
23500 29371 29375 28
23501 29376 29377 28
23502 29376 29378 28
23503 29376 29379 28
23504 29376 29380 28
23505 29381 29382 28
23506 29381 29383 28
23507 29381 29384 28
23508 29381 29385 28
23509 29386 29387 28
23510 29386 29388 28
23511 29386 29389 28
23512 29386 29390 28
23513 29391 29392 28
23514 29391 29393 28
23515 29391 29394 28
23516 29391 29395 28
23517 29396 29397 28
23518 29396 29398 28
23519 29396 29399 28
23520 29396 29400 28
23521 29401 29402 28
23522 29401 29403 28
23523 29401 29404 28
23524 29401 29405 28
23525 29406 29407 28
23526 29406 29408 28
23527 29406 29409 28
23528 29406 29410 28
23529 29411 29412 28
23530 29411 29413 28
23531 29411 29414 28
23532 29411 29415 28
23533 29416 29417 28
23534 29416 29418 28
23535 29416 29419 28
23536 29416 29420 28
23537 29421 29422 28
23538 29421 29423 28
23539 29421 29424 28
23540 29421 29425 28
23541 29426 29427 28
23542 29426 29428 28
23543 29426 29429 28
23544 29426 29430 28
23545 29431 29432 28
23546 29431 29433 28
23547 29431 29434 28
23548 29431 29435 28
23549 29436 29437 28
23550 29436 29438 28
23551 29436 29439 28
23552 29436 29440 28
23553 29441 29442 28
23554 29441 29443 28
23555 29441 29444 28
23556 29441 29445 28
23557 29446 29447 28
23558 29446 29448 28
23559 29446 29449 28
23560 29446 29450 28
23561 29451 29452 28
23562 29451 29453 28
23563 29451 29454 28
23564 29451 29455 28
23565 29456 29457 28
23566 29456 29458 28
23567 29456 29459 28
23568 29456 29460 28
23569 29461 29462 28
23570 29461 29463 28
23571 29461 29464 28
23572 29461 29465 28
23573 29466 29467 28
23574 29466 29468 28
23575 29466 29469 28
23576 29466 29470 28
23577 29471 29472 28
23578 29471 29473 28
23579 29471 29474 28
23580 29471 29475 28
23581 29476 29477 28
23582 29476 29478 28
23583 29476 29479 28
23584 29476 29480 28
23585 29481 29482 28
23586 29481 29483 28
23587 29481 29484 28
23588 29481 29485 28
23589 29486 29487 28
23590 29486 29488 28
23591 29486 29489 28
23592 29486 29490 28
23593 29491 29492 28
23594 29491 29493 28
23595 29491 29494 28
23596 29491 29495 28
23597 29496 29497 28
23598 29496 29498 28
23599 29496 29499 28
23600 29496 29500 28
23601 29501 29502 28
23602 29501 29503 28
23603 29501 29504 28
23604 29501 29505 28
23605 29506 29507 28
23606 29506 29508 28
23607 29506 29509 28
23608 29506 29510 28
23609 29511 29512 28
23610 29511 29513 28
23611 29511 29514 28
23612 29511 29515 28
23613 29516 29517 28
23614 29516 29518 28
23615 29516 29519 28
23616 29516 29520 28
23617 29521 29522 28
23618 29521 29523 28
23619 29521 29524 28
23620 29521 29525 28
23621 29526 29527 28
23622 29526 29528 28
23623 29526 29529 28
23624 29526 29530 28
23625 29531 29532 28
23626 29531 29533 28
23627 29531 29534 28
23628 29531 29535 28
23629 29536 29537 28
23630 29536 29538 28
23631 29536 29539 28
23632 29536 29540 28
23633 29541 29542 28
23634 29541 29543 28
23635 29541 29544 28
23636 29541 29545 28
23637 29546 29547 28
23638 29546 29548 28
23639 29546 29549 28
23640 29546 29550 28
23641 29551 29552 28
23642 29551 29553 28
23643 29551 29554 28
23644 29551 29555 28
23645 29556 29557 28
23646 29556 29558 28
23647 29556 29559 28
23648 29556 29560 28
23649 29561 29562 28
23650 29561 29563 28
23651 29561 29564 28
23652 29561 29565 28
23653 29566 29567 28
23654 29566 29568 28
23655 29566 29569 28
23656 29566 29570 28
23657 29571 29572 28
23658 29571 29573 28
23659 29571 29574 28
23660 29571 29575 28
23661 29576 29577 28
23662 29576 29578 28
23663 29576 29579 28
23664 29576 29580 28
23665 29581 29582 28
23666 29581 29583 28
23667 29581 29584 28
23668 29581 29585 28
23669 29586 29587 28
23670 29586 29588 28
23671 29586 29589 28
23672 29586 29590 28
23673 29591 29592 28
23674 29591 29593 28
23675 29591 29594 28
23676 29591 29595 28
23677 29596 29597 28
23678 29596 29598 28
23679 29596 29599 28
23680 29596 29600 28
23681 29601 29602 28
23682 29601 29603 28
23683 29601 29604 28
23684 29601 29605 28
23685 29606 29607 28
23686 29606 29608 28
23687 29606 29609 28
23688 29606 29610 28
23689 29611 29612 28
23690 29611 29613 28
23691 29611 29614 28
23692 29611 29615 28
23693 29616 29617 28
23694 29616 29618 28
23695 29616 29619 28
23696 29616 29620 28
23697 29621 29622 28
23698 29621 29623 28
23699 29621 29624 28
23700 29621 29625 28
23701 29626 29627 28
23702 29626 29628 28
23703 29626 29629 28
23704 29626 29630 28
23705 29631 29632 28
23706 29631 29633 28
23707 29631 29634 28
23708 29631 29635 28
23709 29636 29637 28
23710 29636 29638 28
23711 29636 29639 28
23712 29636 29640 28
23713 29641 29642 28
23714 29641 29643 28
23715 29641 29644 28
23716 29641 29645 28
23717 29646 29647 28
23718 29646 29648 28
23719 29646 29649 28
23720 29646 29650 28
23721 29651 29652 28
23722 29651 29653 28
23723 29651 29654 28
23724 29651 29655 28
23725 29656 29657 28
23726 29656 29658 28
23727 29656 29659 28
23728 29656 29660 28
23729 29661 29662 28
23730 29661 29663 28
23731 29661 29664 28
23732 29661 29665 28
23733 29666 29667 28
23734 29666 29668 28
23735 29666 29669 28
23736 29666 29670 28
23737 29671 29672 28
23738 29671 29673 28
23739 29671 29674 28
23740 29671 29675 28
23741 29676 29677 28
23742 29676 29678 28
23743 29676 29679 28
23744 29676 29680 28
23745 29681 29682 28
23746 29681 29683 28
23747 29681 29684 28
23748 29681 29685 28
23749 29686 29687 28
23750 29686 29688 28
23751 29686 29689 28
23752 29686 29690 28
23753 29691 29692 28
23754 29691 29693 28
23755 29691 29694 28
23756 29691 29695 28
23757 29696 29697 28
23758 29696 29698 28
23759 29696 29699 28
23760 29696 29700 28
23761 29701 29702 28
23762 29701 29703 28
23763 29701 29704 28
23764 29701 29705 28
23765 29706 29707 28
23766 29706 29708 28
23767 29706 29709 28
23768 29706 29710 28
23769 29711 29712 28
23770 29711 29713 28
23771 29711 29714 28
23772 29711 29715 28
23773 29716 29717 28
23774 29716 29718 28
23775 29716 29719 28
23776 29716 29720 28
23777 29721 29722 28
23778 29721 29723 28
23779 29721 29724 28
23780 29721 29725 28
23781 29726 29727 28
23782 29726 29728 28
23783 29726 29729 28
23784 29726 29730 28
23785 29731 29732 28
23786 29731 29733 28
23787 29731 29734 28
23788 29731 29735 28
23789 29736 29737 28
23790 29736 29738 28
23791 29736 29739 28
23792 29736 29740 28
23793 29741 29742 28
23794 29741 29743 28
23795 29741 29744 28
23796 29741 29745 28
23797 29746 29747 28
23798 29746 29748 28
23799 29746 29749 28
23800 29746 29750 28
23801 29751 29752 28
23802 29751 29753 28
23803 29751 29754 28
23804 29751 29755 28
23805 29756 29757 28
23806 29756 29758 28
23807 29756 29759 28
23808 29756 29760 28
23809 29761 29762 28
23810 29761 29763 28
23811 29761 29764 28
23812 29761 29765 28
23813 29766 29767 28
23814 29766 29768 28
23815 29766 29769 28
23816 29766 29770 28
23817 29771 29772 28
23818 29771 29773 28
23819 29771 29774 28
23820 29771 29775 28
23821 29776 29777 28
23822 29776 29778 28
23823 29776 29779 28
23824 29776 29780 28
23825 29781 29782 28
23826 29781 29783 28
23827 29781 29784 28
23828 29781 29785 28
23829 29786 29787 28
23830 29786 29788 28
23831 29786 29789 28
23832 29786 29790 28
23833 29791 29792 28
23834 29791 29793 28
23835 29791 29794 28
23836 29791 29795 28
23837 29796 29797 28
23838 29796 29798 28
23839 29796 29799 28
23840 29796 29800 28
23841 29801 29802 28
23842 29801 29803 28
23843 29801 29804 28
23844 29801 29805 28
23845 29806 29807 28
23846 29806 29808 28
23847 29806 29809 28
23848 29806 29810 28
23849 29811 29812 28
23850 29811 29813 28
23851 29811 29814 28
23852 29811 29815 28
23853 29816 29817 28
23854 29816 29818 28
23855 29816 29819 28
23856 29816 29820 28
23857 29821 29822 28
23858 29821 29823 28
23859 29821 29824 28
23860 29821 29825 28
23861 29826 29827 28
23862 29826 29828 28
23863 29826 29829 28
23864 29826 29830 28
23865 29831 29832 28
23866 29831 29833 28
23867 29831 29834 28
23868 29831 29835 28
23869 29836 29837 28
23870 29836 29838 28
23871 29836 29839 28
23872 29836 29840 28
23873 29841 29842 28
23874 29841 29843 28
23875 29841 29844 28
23876 29841 29845 28
23877 29846 29847 28
23878 29846 29848 28
23879 29846 29849 28
23880 29846 29850 28
23881 29851 29852 28
23882 29851 29853 28
23883 29851 29854 28
23884 29851 29855 28
23885 29856 29857 28
23886 29856 29858 28
23887 29856 29859 28
23888 29856 29860 28
23889 29861 29862 28
23890 29861 29863 28
23891 29861 29864 28
23892 29861 29865 28
23893 29866 29867 28
23894 29866 29868 28
23895 29866 29869 28
23896 29866 29870 28
23897 29871 29872 28
23898 29871 29873 28
23899 29871 29874 28
23900 29871 29875 28
23901 29876 29877 28
23902 29876 29878 28
23903 29876 29879 28
23904 29876 29880 28
23905 29881 29882 28
23906 29881 29883 28
23907 29881 29884 28
23908 29881 29885 28
23909 29886 29887 28
23910 29886 29888 28
23911 29886 29889 28
23912 29886 29890 28
23913 29891 29892 28
23914 29891 29893 28
23915 29891 29894 28
23916 29891 29895 28
23917 29896 29897 28
23918 29896 29898 28
23919 29896 29899 28
23920 29896 29900 28
23921 29901 29902 28
23922 29901 29903 28
23923 29901 29904 28
23924 29901 29905 28
23925 29906 29907 28
23926 29906 29908 28
23927 29906 29909 28
23928 29906 29910 28
23929 29911 29912 28
23930 29911 29913 28
23931 29911 29914 28
23932 29911 29915 28
23933 29916 29917 28
23934 29916 29918 28
23935 29916 29919 28
23936 29916 29920 28
23937 29921 29922 28
23938 29921 29923 28
23939 29921 29924 28
23940 29921 29925 28
23941 29926 29927 28
23942 29926 29928 28
23943 29926 29929 28
23944 29926 29930 28
23945 29931 29932 28
23946 29931 29933 28
23947 29931 29934 28
23948 29931 29935 28
23949 29936 29937 28
23950 29936 29938 28
23951 29936 29939 28
23952 29936 29940 28
23953 29941 29942 28
23954 29941 29943 28
23955 29941 29944 28
23956 29941 29945 28
23957 29946 29947 28
23958 29946 29948 28
23959 29946 29949 28
23960 29946 29950 28
23961 29951 29952 28
23962 29951 29953 28
23963 29951 29954 28
23964 29951 29955 28
23965 29956 29957 28
23966 29956 29958 28
23967 29956 29959 28
23968 29956 29960 28
23969 29961 29962 28
23970 29961 29963 28
23971 29961 29964 28
23972 29961 29965 28
23973 29966 29967 28
23974 29966 29968 28
23975 29966 29969 28
23976 29966 29970 28
23977 29971 29972 28
23978 29971 29973 28
23979 29971 29974 28
23980 29971 29975 28
23981 29976 29977 28
23982 29976 29978 28
23983 29976 29979 28
23984 29976 29980 28
23985 29981 29982 28
23986 29981 29983 28
23987 29981 29984 28
23988 29981 29985 28
23989 29986 29987 28
23990 29986 29988 28
23991 29986 29989 28
23992 29986 29990 28
23993 29991 29992 28
23994 29991 29993 28
23995 29991 29994 28
23996 29991 29995 28
23997 29996 29997 28
23998 29996 29998 28
23999 29996 29999 28
24000 29996 30000 28
24001 30001 30002 28
24002 30001 30003 28
24003 30001 30004 28
24004 30001 30005 28
24005 30006 30007 28
24006 30006 30008 28
24007 30006 30009 28
24008 30006 30010 28
24009 30011 30012 28
24010 30011 30013 28
24011 30011 30014 28
24012 30011 30015 28
24013 30016 30017 28
24014 30016 30018 28
24015 30016 30019 28
24016 30016 30020 28
24017 30021 30022 28
24018 30021 30023 28
24019 30021 30024 28
24020 30021 30025 28
24021 30026 30027 28
24022 30026 30028 28
24023 30026 30029 28
24024 30026 30030 28
24025 30031 30032 28
24026 30031 30033 28
24027 30031 30034 28
24028 30031 30035 28
24029 30036 30037 28
24030 30036 30038 28
24031 30036 30039 28
24032 30036 30040 28
24033 30041 30042 28
24034 30041 30043 28
24035 30041 30044 28
24036 30041 30045 28
24037 30046 30047 28
24038 30046 30048 28
24039 30046 30049 28
24040 30046 30050 28
24041 30051 30052 28
24042 30051 30053 28
24043 30051 30054 28
24044 30051 30055 28
24045 30056 30057 28
24046 30056 30058 28
24047 30056 30059 28
24048 30056 30060 28
24049 30061 30062 28
24050 30061 30063 28
24051 30061 30064 28
24052 30061 30065 28
24053 30066 30067 28
24054 30066 30068 28
24055 30066 30069 28
24056 30066 30070 28
24057 30071 30072 28
24058 30071 30073 28
24059 30071 30074 28
24060 30071 30075 28
24061 30076 30077 28
24062 30076 30078 28
24063 30076 30079 28
24064 30076 30080 28
24065 30081 30082 28
24066 30081 30083 28
24067 30081 30084 28
24068 30081 30085 28
24069 30086 30087 28
24070 30086 30088 28
24071 30086 30089 28
24072 30086 30090 28
24073 30091 30092 28
24074 30091 30093 28
24075 30091 30094 28
24076 30091 30095 28
24077 30096 30097 28
24078 30096 30098 28
24079 30096 30099 28
24080 30096 30100 28
24081 30101 30102 28
24082 30101 30103 28
24083 30101 30104 28
24084 30101 30105 28
24085 30106 30107 28
24086 30106 30108 28
24087 30106 30109 28
24088 30106 30110 28
24089 30111 30112 28
24090 30111 30113 28
24091 30111 30114 28
24092 30111 30115 28
24093 30116 30117 28
24094 30116 30118 28
24095 30116 30119 28
24096 30116 30120 28
24097 30121 30122 28
24098 30121 30123 28
24099 30121 30124 28
24100 30121 30125 28
24101 30126 30127 28
24102 30126 30128 28
24103 30126 30129 28
24104 30126 30130 28
24105 30131 30132 28
24106 30131 30133 28
24107 30131 30134 28
24108 30131 30135 28
24109 30136 30137 28
24110 30136 30138 28
24111 30136 30139 28
24112 30136 30140 28
24113 30141 30142 28
24114 30141 30143 28
24115 30141 30144 28
24116 30141 30145 28
24117 30146 30147 28
24118 30146 30148 28
24119 30146 30149 28
24120 30146 30150 28
24121 30151 30152 28
24122 30151 30153 28
24123 30151 30154 28
24124 30151 30155 28
24125 30156 30157 28
24126 30156 30158 28
24127 30156 30159 28
24128 30156 30160 28
24129 30161 30162 28
24130 30161 30163 28
24131 30161 30164 28
24132 30161 30165 28
24133 30166 30167 28
24134 30166 30168 28
24135 30166 30169 28
24136 30166 30170 28
24137 30171 30172 28
24138 30171 30173 28
24139 30171 30174 28
24140 30171 30175 28
24141 30176 30177 28
24142 30176 30178 28
24143 30176 30179 28
24144 30176 30180 28
24145 30181 30182 28
24146 30181 30183 28
24147 30181 30184 28
24148 30181 30185 28
24149 30186 30187 28
24150 30186 30188 28
24151 30186 30189 28
24152 30186 30190 28
24153 30191 30192 28
24154 30191 30193 28
24155 30191 30194 28
24156 30191 30195 28
24157 30196 30197 28
24158 30196 30198 28
24159 30196 30199 28
24160 30196 30200 28
24161 30201 30202 28
24162 30201 30203 28
24163 30201 30204 28
24164 30201 30205 28
24165 30206 30207 28
24166 30206 30208 28
24167 30206 30209 28
24168 30206 30210 28
24169 30211 30212 28
24170 30211 30213 28
24171 30211 30214 28
24172 30211 30215 28
24173 30216 30217 28
24174 30216 30218 28
24175 30216 30219 28
24176 30216 30220 28
24177 30221 30222 28
24178 30221 30223 28
24179 30221 30224 28
24180 30221 30225 28
24181 30226 30227 28
24182 30226 30228 28
24183 30226 30229 28
24184 30226 30230 28
24185 30231 30232 28
24186 30231 30233 28
24187 30231 30234 28
24188 30231 30235 28
24189 30236 30237 28
24190 30236 30238 28
24191 30236 30239 28
24192 30236 30240 28
24193 30241 30242 28
24194 30241 30243 28
24195 30241 30244 28
24196 30241 30245 28
24197 30246 30247 28
24198 30246 30248 28
24199 30246 30249 28
24200 30246 30250 28
24201 30251 30252 28
24202 30251 30253 28
24203 30251 30254 28
24204 30251 30255 28
24205 30256 30257 28
24206 30256 30258 28
24207 30256 30259 28
24208 30256 30260 28
24209 30261 30262 28
24210 30261 30263 28
24211 30261 30264 28
24212 30261 30265 28
24213 30266 30267 28
24214 30266 30268 28
24215 30266 30269 28
24216 30266 30270 28
24217 30271 30272 28
24218 30271 30273 28
24219 30271 30274 28
24220 30271 30275 28
24221 30276 30277 28
24222 30276 30278 28
24223 30276 30279 28
24224 30276 30280 28
24225 30281 30282 28
24226 30281 30283 28
24227 30281 30284 28
24228 30281 30285 28
24229 30286 30287 28
24230 30286 30288 28
24231 30286 30289 28
24232 30286 30290 28
24233 30291 30292 28
24234 30291 30293 28
24235 30291 30294 28
24236 30291 30295 28
24237 30296 30297 28
24238 30296 30298 28
24239 30296 30299 28
24240 30296 30300 28
24241 30301 30302 28
24242 30301 30303 28
24243 30301 30304 28
24244 30301 30305 28
24245 30306 30307 28
24246 30306 30308 28
24247 30306 30309 28
24248 30306 30310 28
24249 30311 30312 28
24250 30311 30313 28
24251 30311 30314 28
24252 30311 30315 28
24253 30316 30317 28
24254 30316 30318 28
24255 30316 30319 28
24256 30316 30320 28
24257 30321 30322 28
24258 30321 30323 28
24259 30321 30324 28
24260 30321 30325 28
24261 30326 30327 28
24262 30326 30328 28
24263 30326 30329 28
24264 30326 30330 28
24265 30331 30332 28
24266 30331 30333 28
24267 30331 30334 28
24268 30331 30335 28
24269 30336 30337 28
24270 30336 30338 28
24271 30336 30339 28
24272 30336 30340 28
24273 30341 30342 28
24274 30341 30343 28
24275 30341 30344 28
24276 30341 30345 28
24277 30346 30347 28
24278 30346 30348 28
24279 30346 30349 28
24280 30346 30350 28
24281 30351 30352 28
24282 30351 30353 28
24283 30351 30354 28
24284 30351 30355 28
24285 30356 30357 28
24286 30356 30358 28
24287 30356 30359 28
24288 30356 30360 28
24289 30361 30362 28
24290 30361 30363 28
24291 30361 30364 28
24292 30361 30365 28
24293 30366 30367 28
24294 30366 30368 28
24295 30366 30369 28
24296 30366 30370 28
24297 30371 30372 28
24298 30371 30373 28
24299 30371 30374 28
24300 30371 30375 28
24301 30376 30377 28
24302 30376 30378 28
24303 30376 30379 28
24304 30376 30380 28
24305 30381 30382 28
24306 30381 30383 28
24307 30381 30384 28
24308 30381 30385 28
24309 30386 30387 28
24310 30386 30388 28
24311 30386 30389 28
24312 30386 30390 28
24313 30391 30392 28
24314 30391 30393 28
24315 30391 30394 28
24316 30391 30395 28
24317 30396 30397 28
24318 30396 30398 28
24319 30396 30399 28
24320 30396 30400 28
24321 30401 30402 28
24322 30401 30403 28
24323 30401 30404 28
24324 30401 30405 28
24325 30406 30407 28
24326 30406 30408 28
24327 30406 30409 28
24328 30406 30410 28
24329 30411 30412 28
24330 30411 30413 28
24331 30411 30414 28
24332 30411 30415 28
24333 30416 30417 28
24334 30416 30418 28
24335 30416 30419 28
24336 30416 30420 28
24337 30421 30422 28
24338 30421 30423 28
24339 30421 30424 28
24340 30421 30425 28
24341 30426 30427 28
24342 30426 30428 28
24343 30426 30429 28
24344 30426 30430 28
24345 30431 30432 28
24346 30431 30433 28
24347 30431 30434 28
24348 30431 30435 28
24349 30436 30437 28
24350 30436 30438 28
24351 30436 30439 28
24352 30436 30440 28
24353 30441 30442 28
24354 30441 30443 28
24355 30441 30444 28
24356 30441 30445 28
24357 30446 30447 28
24358 30446 30448 28
24359 30446 30449 28
24360 30446 30450 28
24361 30451 30452 28
24362 30451 30453 28
24363 30451 30454 28
24364 30451 30455 28
24365 30456 30457 28
24366 30456 30458 28
24367 30456 30459 28
24368 30456 30460 28
24369 30461 30462 28
24370 30461 30463 28
24371 30461 30464 28
24372 30461 30465 28
24373 30466 30467 28
24374 30466 30468 28
24375 30466 30469 28
24376 30466 30470 28
24377 30471 30472 28
24378 30471 30473 28
24379 30471 30474 28
24380 30471 30475 28
24381 30476 30477 28
24382 30476 30478 28
24383 30476 30479 28
24384 30476 30480 28
24385 30481 30482 28
24386 30481 30483 28
24387 30481 30484 28
24388 30481 30485 28
24389 30486 30487 28
24390 30486 30488 28
24391 30486 30489 28
24392 30486 30490 28
24393 30491 30492 28
24394 30491 30493 28
24395 30491 30494 28
24396 30491 30495 28
24397 30496 30497 28
24398 30496 30498 28
24399 30496 30499 28
24400 30496 30500 28
24401 30501 30502 28
24402 30501 30503 28
24403 30501 30504 28
24404 30501 30505 28
24405 30506 30507 28
24406 30506 30508 28
24407 30506 30509 28
24408 30506 30510 28
24409 30511 30512 28
24410 30511 30513 28
24411 30511 30514 28
24412 30511 30515 28
24413 30516 30517 28
24414 30516 30518 28
24415 30516 30519 28
24416 30516 30520 28
24417 30521 30522 28
24418 30521 30523 28
24419 30521 30524 28
24420 30521 30525 28
24421 30526 30527 28
24422 30526 30528 28
24423 30526 30529 28
24424 30526 30530 28
24425 30531 30532 28
24426 30531 30533 28
24427 30531 30534 28
24428 30531 30535 28
24429 30536 30537 28
24430 30536 30538 28
24431 30536 30539 28
24432 30536 30540 28
24433 30541 30542 28
24434 30541 30543 28
24435 30541 30544 28
24436 30541 30545 28
24437 30546 30547 28
24438 30546 30548 28
24439 30546 30549 28
24440 30546 30550 28
24441 30551 30552 28
24442 30551 30553 28
24443 30551 30554 28
24444 30551 30555 28
24445 30556 30557 28
24446 30556 30558 28
24447 30556 30559 28
24448 30556 30560 28
24449 30561 30562 28
24450 30561 30563 28
24451 30561 30564 28
24452 30561 30565 28
24453 30566 30567 28
24454 30566 30568 28
24455 30566 30569 28
24456 30566 30570 28
24457 30571 30572 28
24458 30571 30573 28
24459 30571 30574 28
24460 30571 30575 28
24461 30576 30577 28
24462 30576 30578 28
24463 30576 30579 28
24464 30576 30580 28
24465 30581 30582 28
24466 30581 30583 28
24467 30581 30584 28
24468 30581 30585 28
24469 30586 30587 28
24470 30586 30588 28
24471 30586 30589 28
24472 30586 30590 28
24473 30591 30592 28
24474 30591 30593 28
24475 30591 30594 28
24476 30591 30595 28
24477 30596 30597 28
24478 30596 30598 28
24479 30596 30599 28
24480 30596 30600 28
24481 30601 30602 28
24482 30601 30603 28
24483 30601 30604 28
24484 30601 30605 28
24485 30606 30607 28
24486 30606 30608 28
24487 30606 30609 28
24488 30606 30610 28
24489 30611 30612 28
24490 30611 30613 28
24491 30611 30614 28
24492 30611 30615 28
24493 30616 30617 28
24494 30616 30618 28
24495 30616 30619 28
24496 30616 30620 28
24497 30621 30622 28
24498 30621 30623 28
24499 30621 30624 28
24500 30621 30625 28
24501 30626 30627 28
24502 30626 30628 28
24503 30626 30629 28
24504 30626 30630 28
24505 30631 30632 28
24506 30631 30633 28
24507 30631 30634 28
24508 30631 30635 28
24509 30636 30637 28
24510 30636 30638 28
24511 30636 30639 28
24512 30636 30640 28
24513 30641 30642 28
24514 30641 30643 28
24515 30641 30644 28
24516 30641 30645 28
24517 30646 30647 28
24518 30646 30648 28
24519 30646 30649 28
24520 30646 30650 28
24521 30651 30652 28
24522 30651 30653 28
24523 30651 30654 28
24524 30651 30655 28
24525 30656 30657 28
24526 30656 30658 28
24527 30656 30659 28
24528 30656 30660 28
24529 30661 30662 28
24530 30661 30663 28
24531 30661 30664 28
24532 30661 30665 28
24533 30666 30667 28
24534 30666 30668 28
24535 30666 30669 28
24536 30666 30670 28
24537 30671 30672 28
24538 30671 30673 28
24539 30671 30674 28
24540 30671 30675 28
24541 30676 30677 28
24542 30676 30678 28
24543 30676 30679 28
24544 30676 30680 28
24545 30681 30682 28
24546 30681 30683 28
24547 30681 30684 28
24548 30681 30685 28
24549 30686 30687 28
24550 30686 30688 28
24551 30686 30689 28
24552 30686 30690 28
24553 30691 30692 28
24554 30691 30693 28
24555 30691 30694 28
24556 30691 30695 28
24557 30696 30697 28
24558 30696 30698 28
24559 30696 30699 28
24560 30696 30700 28
24561 30701 30702 28
24562 30701 30703 28
24563 30701 30704 28
24564 30701 30705 28
24565 30706 30707 28
24566 30706 30708 28
24567 30706 30709 28
24568 30706 30710 28
24569 30711 30712 28
24570 30711 30713 28
24571 30711 30714 28
24572 30711 30715 28
24573 30716 30717 28
24574 30716 30718 28
24575 30716 30719 28
24576 30716 30720 28
24577 30721 30722 28
24578 30721 30723 28
24579 30721 30724 28
24580 30721 30725 28
24581 30726 30727 28
24582 30726 30728 28
24583 30726 30729 28
24584 30726 30730 28
24585 30731 30732 28
24586 30731 30733 28
24587 30731 30734 28
24588 30731 30735 28
24589 30736 30737 28
24590 30736 30738 28
24591 30736 30739 28
24592 30736 30740 28
24593 30741 30742 28
24594 30741 30743 28
24595 30741 30744 28
24596 30741 30745 28
24597 30746 30747 28
24598 30746 30748 28
24599 30746 30749 28
24600 30746 30750 28
24601 30751 30752 28
24602 30751 30753 28
24603 30751 30754 28
24604 30751 30755 28
24605 30756 30757 28
24606 30756 30758 28
24607 30756 30759 28
24608 30756 30760 28
24609 30761 30762 28
24610 30761 30763 28
24611 30761 30764 28
24612 30761 30765 28
24613 30766 30767 28
24614 30766 30768 28
24615 30766 30769 28
24616 30766 30770 28
24617 30771 30772 28
24618 30771 30773 28
24619 30771 30774 28
24620 30771 30775 28
24621 30776 30777 28
24622 30776 30778 28
24623 30776 30779 28
24624 30776 30780 28
24625 30781 30782 28
24626 30781 30783 28
24627 30781 30784 28
24628 30781 30785 28
24629 30786 30787 28
24630 30786 30788 28
24631 30786 30789 28
24632 30786 30790 28
24633 30791 30792 28
24634 30791 30793 28
24635 30791 30794 28
24636 30791 30795 28
24637 30796 30797 28
24638 30796 30798 28
24639 30796 30799 28
24640 30796 30800 28
24641 30801 30802 28
24642 30801 30803 28
24643 30801 30804 28
24644 30801 30805 28
24645 30806 30807 28
24646 30806 30808 28
24647 30806 30809 28
24648 30806 30810 28
24649 30811 30812 28
24650 30811 30813 28
24651 30811 30814 28
24652 30811 30815 28
24653 30816 30817 28
24654 30816 30818 28
24655 30816 30819 28
24656 30816 30820 28
24657 30821 30822 28
24658 30821 30823 28
24659 30821 30824 28
24660 30821 30825 28
24661 30826 30827 28
24662 30826 30828 28
24663 30826 30829 28
24664 30826 30830 28
24665 30831 30832 28
24666 30831 30833 28
24667 30831 30834 28
24668 30831 30835 28
24669 30836 30837 28
24670 30836 30838 28
24671 30836 30839 28
24672 30836 30840 28
24673 30841 30842 28
24674 30841 30843 28
24675 30841 30844 28
24676 30841 30845 28
24677 30846 30847 28
24678 30846 30848 28
24679 30846 30849 28
24680 30846 30850 28
24681 30851 30852 28
24682 30851 30853 28
24683 30851 30854 28
24684 30851 30855 28
24685 30856 30857 28
24686 30856 30858 28
24687 30856 30859 28
24688 30856 30860 28
24689 30861 30862 28
24690 30861 30863 28
24691 30861 30864 28
24692 30861 30865 28
24693 30866 30867 28
24694 30866 30868 28
24695 30866 30869 28
24696 30866 30870 28
24697 30871 30872 28
24698 30871 30873 28
24699 30871 30874 28
24700 30871 30875 28
24701 30876 30877 28
24702 30876 30878 28
24703 30876 30879 28
24704 30876 30880 28
24705 30881 30882 28
24706 30881 30883 28
24707 30881 30884 28
24708 30881 30885 28
24709 30886 30887 28
24710 30886 30888 28
24711 30886 30889 28
24712 30886 30890 28
24713 30891 30892 28
24714 30891 30893 28
24715 30891 30894 28
24716 30891 30895 28
24717 30896 30897 28
24718 30896 30898 28
24719 30896 30899 28
24720 30896 30900 28
24721 30901 30902 28
24722 30901 30903 28
24723 30901 30904 28
24724 30901 30905 28
24725 30906 30907 28
24726 30906 30908 28
24727 30906 30909 28
24728 30906 30910 28
24729 30911 30912 28
24730 30911 30913 28
24731 30911 30914 28
24732 30911 30915 28
24733 30916 30917 28
24734 30916 30918 28
24735 30916 30919 28
24736 30916 30920 28
24737 30921 30922 28
24738 30921 30923 28
24739 30921 30924 28
24740 30921 30925 28
24741 30926 30927 28
24742 30926 30928 28
24743 30926 30929 28
24744 30926 30930 28
24745 30931 30932 28
24746 30931 30933 28
24747 30931 30934 28
24748 30931 30935 28
24749 30936 30937 28
24750 30936 30938 28
24751 30936 30939 28
24752 30936 30940 28
24753 30941 30942 28
24754 30941 30943 28
24755 30941 30944 28
24756 30941 30945 28
24757 30946 30947 28
24758 30946 30948 28
24759 30946 30949 28
24760 30946 30950 28
24761 30951 30952 28
24762 30951 30953 28
24763 30951 30954 28
24764 30951 30955 28
24765 30956 30957 28
24766 30956 30958 28
24767 30956 30959 28
24768 30956 30960 28
24769 30961 30962 28
24770 30961 30963 28
24771 30961 30964 28
24772 30961 30965 28
24773 30966 30967 28
24774 30966 30968 28
24775 30966 30969 28
24776 30966 30970 28
24777 30971 30972 28
24778 30971 30973 28
24779 30971 30974 28
24780 30971 30975 28
24781 30976 30977 28
24782 30976 30978 28
24783 30976 30979 28
24784 30976 30980 28
24785 30981 30982 28
24786 30981 30983 28
24787 30981 30984 28
24788 30981 30985 28
24789 30986 30987 28
24790 30986 30988 28
24791 30986 30989 28
24792 30986 30990 28
24793 30991 30992 28
24794 30991 30993 28
24795 30991 30994 28
24796 30991 30995 28
24797 30996 30997 28
24798 30996 30998 28
24799 30996 30999 28
24800 30996 31000 28
24801 31001 31002 28
24802 31001 31003 28
24803 31001 31004 28
24804 31001 31005 28
24805 31006 31007 28
24806 31006 31008 28
24807 31006 31009 28
24808 31006 31010 28
24809 31011 31012 28
24810 31011 31013 28
24811 31011 31014 28
24812 31011 31015 28
24813 31016 31017 28
24814 31016 31018 28
24815 31016 31019 28
24816 31016 31020 28
24817 31021 31022 28
24818 31021 31023 28
24819 31021 31024 28
24820 31021 31025 28
24821 31026 31027 28
24822 31026 31028 28
24823 31026 31029 28
24824 31026 31030 28
24825 31031 31032 28
24826 31031 31033 28
24827 31031 31034 28
24828 31031 31035 28
24829 31036 31037 28
24830 31036 31038 28
24831 31036 31039 28
24832 31036 31040 28
24833 31041 31042 28
24834 31041 31043 28
24835 31041 31044 28
24836 31041 31045 28
24837 31046 31047 28
24838 31046 31048 28
24839 31046 31049 28
24840 31046 31050 28
24841 31051 31052 28
24842 31051 31053 28
24843 31051 31054 28
24844 31051 31055 28
24845 31056 31057 28
24846 31056 31058 28
24847 31056 31059 28
24848 31056 31060 28
24849 31061 31062 28
24850 31061 31063 28
24851 31061 31064 28
24852 31061 31065 28
24853 31066 31067 28
24854 31066 31068 28
24855 31066 31069 28
24856 31066 31070 28
24857 31071 31072 28
24858 31071 31073 28
24859 31071 31074 28
24860 31071 31075 28
24861 31076 31077 28
24862 31076 31078 28
24863 31076 31079 28
24864 31076 31080 28
24865 31081 31082 28
24866 31081 31083 28
24867 31081 31084 28
24868 31081 31085 28
24869 31086 31087 28
24870 31086 31088 28
24871 31086 31089 28
24872 31086 31090 28
24873 31091 31092 28
24874 31091 31093 28
24875 31091 31094 28
24876 31091 31095 28
24877 31096 31097 28
24878 31096 31098 28
24879 31096 31099 28
24880 31096 31100 28
24881 31101 31102 28
24882 31101 31103 28
24883 31101 31104 28
24884 31101 31105 28
24885 31106 31107 28
24886 31106 31108 28
24887 31106 31109 28
24888 31106 31110 28
24889 31111 31112 28
24890 31111 31113 28
24891 31111 31114 28
24892 31111 31115 28
24893 31116 31117 28
24894 31116 31118 28
24895 31116 31119 28
24896 31116 31120 28
24897 31121 31122 28
24898 31121 31123 28
24899 31121 31124 28
24900 31121 31125 28
24901 31126 31127 28
24902 31126 31128 28
24903 31126 31129 28
24904 31126 31130 28
24905 31131 31132 28
24906 31131 31133 28
24907 31131 31134 28
24908 31131 31135 28
24909 31136 31137 28
24910 31136 31138 28
24911 31136 31139 28
24912 31136 31140 28
24913 31141 31142 28
24914 31141 31143 28
24915 31141 31144 28
24916 31141 31145 28
24917 31146 31147 28
24918 31146 31148 28
24919 31146 31149 28
24920 31146 31150 28
24921 31151 31152 28
24922 31151 31153 28
24923 31151 31154 28
24924 31151 31155 28
24925 31156 31157 28
24926 31156 31158 28
24927 31156 31159 28
24928 31156 31160 28
24929 31161 31162 28
24930 31161 31163 28
24931 31161 31164 28
24932 31161 31165 28
24933 31166 31167 28
24934 31166 31168 28
24935 31166 31169 28
24936 31166 31170 28
24937 31171 31172 28
24938 31171 31173 28
24939 31171 31174 28
24940 31171 31175 28
24941 31176 31177 28
24942 31176 31178 28
24943 31176 31179 28
24944 31176 31180 28
24945 31181 31182 28
24946 31181 31183 28
24947 31181 31184 28
24948 31181 31185 28
24949 31186 31187 28
24950 31186 31188 28
24951 31186 31189 28
24952 31186 31190 28
24953 31191 31192 28
24954 31191 31193 28
24955 31191 31194 28
24956 31191 31195 28
24957 31196 31197 28
24958 31196 31198 28
24959 31196 31199 28
24960 31196 31200 28
24961 31201 31202 28
24962 31201 31203 28
24963 31201 31204 28
24964 31201 31205 28
24965 31206 31207 28
24966 31206 31208 28
24967 31206 31209 28
24968 31206 31210 28
24969 31211 31212 28
24970 31211 31213 28
24971 31211 31214 28
24972 31211 31215 28
24973 31216 31217 28
24974 31216 31218 28
24975 31216 31219 28
24976 31216 31220 28
24977 31221 31222 28
24978 31221 31223 28
24979 31221 31224 28
24980 31221 31225 28
24981 31226 31227 28
24982 31226 31228 28
24983 31226 31229 28
24984 31226 31230 28
24985 31231 31232 28
24986 31231 31233 28
24987 31231 31234 28
24988 31231 31235 28
24989 31236 31237 28
24990 31236 31238 28
24991 31236 31239 28
24992 31236 31240 28
24993 31241 31242 28
24994 31241 31243 28
24995 31241 31244 28
24996 31241 31245 28
24997 31246 31247 28
24998 31246 31248 28
24999 31246 31249 28
25000 31246 31250 28
25001 31251 31252 28
25002 31251 31253 28
25003 31251 31254 28
25004 31251 31255 28
25005 31256 31257 28
25006 31256 31258 28
25007 31256 31259 28
25008 31256 31260 28
25009 31261 31262 28
25010 31261 31263 28
25011 31261 31264 28
25012 31261 31265 28
25013 31266 31267 28
25014 31266 31268 28
25015 31266 31269 28
25016 31266 31270 28
25017 31271 31272 28
25018 31271 31273 28
25019 31271 31274 28
25020 31271 31275 28
25021 31276 31277 28
25022 31276 31278 28
25023 31276 31279 28
25024 31276 31280 28
25025 31281 31282 28
25026 31281 31283 28
25027 31281 31284 28
25028 31281 31285 28
25029 31286 31287 28
25030 31286 31288 28
25031 31286 31289 28
25032 31286 31290 28
25033 31291 31292 28
25034 31291 31293 28
25035 31291 31294 28
25036 31291 31295 28
25037 31296 31297 28
25038 31296 31298 28
25039 31296 31299 28
25040 31296 31300 28
25041 31301 31302 28
25042 31301 31303 28
25043 31301 31304 28
25044 31301 31305 28
25045 31306 31307 28
25046 31306 31308 28
25047 31306 31309 28
25048 31306 31310 28
25049 31311 31312 28
25050 31311 31313 28
25051 31311 31314 28
25052 31311 31315 28
25053 31316 31317 28
25054 31316 31318 28
25055 31316 31319 28
25056 31316 31320 28
25057 31321 31322 28
25058 31321 31323 28
25059 31321 31324 28
25060 31321 31325 28
25061 31326 31327 28
25062 31326 31328 28
25063 31326 31329 28
25064 31326 31330 28
25065 31331 31332 28
25066 31331 31333 28
25067 31331 31334 28
25068 31331 31335 28
25069 31336 31337 28
25070 31336 31338 28
25071 31336 31339 28
25072 31336 31340 28
25073 31341 31342 28
25074 31341 31343 28
25075 31341 31344 28
25076 31341 31345 28
25077 31346 31347 28
25078 31346 31348 28
25079 31346 31349 28
25080 31346 31350 28
25081 31351 31352 28
25082 31351 31353 28
25083 31351 31354 28
25084 31351 31355 28
25085 31356 31357 28
25086 31356 31358 28
25087 31356 31359 28
25088 31356 31360 28
25089 31361 31362 28
25090 31361 31363 28
25091 31361 31364 28
25092 31361 31365 28
25093 31366 31367 28
25094 31366 31368 28
25095 31366 31369 28
25096 31366 31370 28
25097 31371 31372 28
25098 31371 31373 28
25099 31371 31374 28
25100 31371 31375 28
25101 31376 31377 28
25102 31376 31378 28
25103 31376 31379 28
25104 31376 31380 28
25105 31381 31382 28
25106 31381 31383 28
25107 31381 31384 28
25108 31381 31385 28
25109 31386 31387 28
25110 31386 31388 28
25111 31386 31389 28
25112 31386 31390 28
25113 31391 31392 28
25114 31391 31393 28
25115 31391 31394 28
25116 31391 31395 28
25117 31396 31397 28
25118 31396 31398 28
25119 31396 31399 28
25120 31396 31400 28
25121 31401 31402 28
25122 31401 31403 28
25123 31401 31404 28
25124 31401 31405 28
25125 31406 31407 28
25126 31406 31408 28
25127 31406 31409 28
25128 31406 31410 28
25129 31411 31412 28
25130 31411 31413 28
25131 31411 31414 28
25132 31411 31415 28
25133 31416 31417 28
25134 31416 31418 28
25135 31416 31419 28
25136 31416 31420 28
25137 31421 31422 28
25138 31421 31423 28
25139 31421 31424 28
25140 31421 31425 28
25141 31426 31427 28
25142 31426 31428 28
25143 31426 31429 28
25144 31426 31430 28
25145 31431 31432 28
25146 31431 31433 28
25147 31431 31434 28
25148 31431 31435 28
25149 31436 31437 28
25150 31436 31438 28
25151 31436 31439 28
25152 31436 31440 28
25153 31441 31442 28
25154 31441 31443 28
25155 31441 31444 28
25156 31441 31445 28
25157 31446 31447 28
25158 31446 31448 28
25159 31446 31449 28
25160 31446 31450 28
25161 31451 31452 28
25162 31451 31453 28
25163 31451 31454 28
25164 31451 31455 28
25165 31456 31457 28
25166 31456 31458 28
25167 31456 31459 28
25168 31456 31460 28
25169 31461 31462 28
25170 31461 31463 28
25171 31461 31464 28
25172 31461 31465 28
25173 31466 31467 28
25174 31466 31468 28
25175 31466 31469 28
25176 31466 31470 28
25177 31471 31472 28
25178 31471 31473 28
25179 31471 31474 28
25180 31471 31475 28
25181 31476 31477 28
25182 31476 31478 28
25183 31476 31479 28
25184 31476 31480 28
25185 31481 31482 28
25186 31481 31483 28
25187 31481 31484 28
25188 31481 31485 28
25189 31486 31487 28
25190 31486 31488 28
25191 31486 31489 28
25192 31486 31490 28
25193 31491 31492 28
25194 31491 31493 28
25195 31491 31494 28
25196 31491 31495 28
25197 31496 31497 28
25198 31496 31498 28
25199 31496 31499 28
25200 31496 31500 28
25201 31501 31502 28
25202 31501 31503 28
25203 31501 31504 28
25204 31501 31505 28
25205 31506 31507 28
25206 31506 31508 28
25207 31506 31509 28
25208 31506 31510 28
25209 31511 31512 28
25210 31511 31513 28
25211 31511 31514 28
25212 31511 31515 28
25213 31516 31517 28
25214 31516 31518 28
25215 31516 31519 28
25216 31516 31520 28
25217 31521 31522 28
25218 31521 31523 28
25219 31521 31524 28
25220 31521 31525 28
25221 31526 31527 28
25222 31526 31528 28
25223 31526 31529 28
25224 31526 31530 28
25225 31531 31532 28
25226 31531 31533 28
25227 31531 31534 28
25228 31531 31535 28
25229 31536 31537 28
25230 31536 31538 28
25231 31536 31539 28
25232 31536 31540 28
25233 31541 31542 28
25234 31541 31543 28
25235 31541 31544 28
25236 31541 31545 28
25237 31546 31547 28
25238 31546 31548 28
25239 31546 31549 28
25240 31546 31550 28
25241 31551 31552 28
25242 31551 31553 28
25243 31551 31554 28
25244 31551 31555 28
25245 31556 31557 28
25246 31556 31558 28
25247 31556 31559 28
25248 31556 31560 28
25249 31561 31562 28
25250 31561 31563 28
25251 31561 31564 28
25252 31561 31565 28
25253 31566 31567 28
25254 31566 31568 28
25255 31566 31569 28
25256 31566 31570 28
25257 31571 31572 28
25258 31571 31573 28
25259 31571 31574 28
25260 31571 31575 28
25261 31576 31577 28
25262 31576 31578 28
25263 31576 31579 28
25264 31576 31580 28
25265 31581 31582 28
25266 31581 31583 28
25267 31581 31584 28
25268 31581 31585 28
25269 31586 31587 28
25270 31586 31588 28
25271 31586 31589 28
25272 31586 31590 28
25273 31591 31592 28
25274 31591 31593 28
25275 31591 31594 28
25276 31591 31595 28
25277 31596 31597 28
25278 31596 31598 28
25279 31596 31599 28
25280 31596 31600 28
25281 31601 31602 28
25282 31601 31603 28
25283 31601 31604 28
25284 31601 31605 28
25285 31606 31607 28
25286 31606 31608 28
25287 31606 31609 28
25288 31606 31610 28
25289 31611 31612 28
25290 31611 31613 28
25291 31611 31614 28
25292 31611 31615 28
25293 31616 31617 28
25294 31616 31618 28
25295 31616 31619 28
25296 31616 31620 28
25297 31621 31622 28
25298 31621 31623 28
25299 31621 31624 28
25300 31621 31625 28
25301 31626 31627 28
25302 31626 31628 28
25303 31626 31629 28
25304 31626 31630 28
25305 31631 31632 28
25306 31631 31633 28
25307 31631 31634 28
25308 31631 31635 28
25309 31636 31637 28
25310 31636 31638 28
25311 31636 31639 28
25312 31636 31640 28
25313 31641 31642 28
25314 31641 31643 28
25315 31641 31644 28
25316 31641 31645 28
25317 31646 31647 28
25318 31646 31648 28
25319 31646 31649 28
25320 31646 31650 28
25321 31651 31652 28
25322 31651 31653 28
25323 31651 31654 28
25324 31651 31655 28
25325 31656 31657 28
25326 31656 31658 28
25327 31656 31659 28
25328 31656 31660 28
25329 31661 31662 28
25330 31661 31663 28
25331 31661 31664 28
25332 31661 31665 28
25333 31666 31667 28
25334 31666 31668 28
25335 31666 31669 28
25336 31666 31670 28
25337 31671 31672 28
25338 31671 31673 28
25339 31671 31674 28
25340 31671 31675 28
25341 31676 31677 28
25342 31676 31678 28
25343 31676 31679 28
25344 31676 31680 28
25345 31681 31682 28
25346 31681 31683 28
25347 31681 31684 28
25348 31681 31685 28
25349 31686 31687 28
25350 31686 31688 28
25351 31686 31689 28
25352 31686 31690 28
25353 31691 31692 28
25354 31691 31693 28
25355 31691 31694 28
25356 31691 31695 28
25357 31696 31697 28
25358 31696 31698 28
25359 31696 31699 28
25360 31696 31700 28
25361 31701 31702 28
25362 31701 31703 28
25363 31701 31704 28
25364 31701 31705 28
25365 31706 31707 28
25366 31706 31708 28
25367 31706 31709 28
25368 31706 31710 28
25369 31711 31712 28
25370 31711 31713 28
25371 31711 31714 28
25372 31711 31715 28
25373 31716 31717 28
25374 31716 31718 28
25375 31716 31719 28
25376 31716 31720 28
25377 31721 31722 28
25378 31721 31723 28
25379 31721 31724 28
25380 31721 31725 28
25381 31726 31727 28
25382 31726 31728 28
25383 31726 31729 28
25384 31726 31730 28
25385 31731 31732 28
25386 31731 31733 28
25387 31731 31734 28
25388 31731 31735 28
25389 31736 31737 28
25390 31736 31738 28
25391 31736 31739 28
25392 31736 31740 28
25393 31741 31742 28
25394 31741 31743 28
25395 31741 31744 28
25396 31741 31745 28
25397 31746 31747 28
25398 31746 31748 28
25399 31746 31749 28
25400 31746 31750 28
25401 31751 31752 28
25402 31751 31753 28
25403 31751 31754 28
25404 31751 31755 28
25405 31756 31757 28
25406 31756 31758 28
25407 31756 31759 28
25408 31756 31760 28
25409 31761 31762 28
25410 31761 31763 28
25411 31761 31764 28
25412 31761 31765 28
25413 31766 31767 28
25414 31766 31768 28
25415 31766 31769 28
25416 31766 31770 28
25417 31771 31772 28
25418 31771 31773 28
25419 31771 31774 28
25420 31771 31775 28
25421 31776 31777 28
25422 31776 31778 28
25423 31776 31779 28
25424 31776 31780 28
25425 31781 31782 28
25426 31781 31783 28
25427 31781 31784 28
25428 31781 31785 28
25429 31786 31787 28
25430 31786 31788 28
25431 31786 31789 28
25432 31786 31790 28
25433 31791 31792 28
25434 31791 31793 28
25435 31791 31794 28
25436 31791 31795 28
25437 31796 31797 28
25438 31796 31798 28
25439 31796 31799 28
25440 31796 31800 28
25441 31801 31802 28
25442 31801 31803 28
25443 31801 31804 28
25444 31801 31805 28
25445 31806 31807 28
25446 31806 31808 28
25447 31806 31809 28
25448 31806 31810 28
25449 31811 31812 28
25450 31811 31813 28
25451 31811 31814 28
25452 31811 31815 28
25453 31816 31817 28
25454 31816 31818 28
25455 31816 31819 28
25456 31816 31820 28
25457 31821 31822 28
25458 31821 31823 28
25459 31821 31824 28
25460 31821 31825 28
25461 31826 31827 28
25462 31826 31828 28
25463 31826 31829 28
25464 31826 31830 28
25465 31831 31832 28
25466 31831 31833 28
25467 31831 31834 28
25468 31831 31835 28
25469 31836 31837 28
25470 31836 31838 28
25471 31836 31839 28
25472 31836 31840 28
25473 31841 31842 28
25474 31841 31843 28
25475 31841 31844 28
25476 31841 31845 28
25477 31846 31847 28
25478 31846 31848 28
25479 31846 31849 28
25480 31846 31850 28
25481 31851 31852 28
25482 31851 31853 28
25483 31851 31854 28
25484 31851 31855 28
25485 31856 31857 28
25486 31856 31858 28
25487 31856 31859 28
25488 31856 31860 28
25489 31861 31862 28
25490 31861 31863 28
25491 31861 31864 28
25492 31861 31865 28
25493 31866 31867 28
25494 31866 31868 28
25495 31866 31869 28
25496 31866 31870 28
25497 31871 31872 28
25498 31871 31873 28
25499 31871 31874 28
25500 31871 31875 28
25501 31876 31877 28
25502 31876 31878 28
25503 31876 31879 28
25504 31876 31880 28
25505 31881 31882 28
25506 31881 31883 28
25507 31881 31884 28
25508 31881 31885 28
25509 31886 31887 28
25510 31886 31888 28
25511 31886 31889 28
25512 31886 31890 28
25513 31891 31892 28
25514 31891 31893 28
25515 31891 31894 28
25516 31891 31895 28
25517 31896 31897 28
25518 31896 31898 28
25519 31896 31899 28
25520 31896 31900 28
25521 31901 31902 28
25522 31901 31903 28
25523 31901 31904 28
25524 31901 31905 28
25525 31906 31907 28
25526 31906 31908 28
25527 31906 31909 28
25528 31906 31910 28
25529 31911 31912 28
25530 31911 31913 28
25531 31911 31914 28
25532 31911 31915 28
25533 31916 31917 28
25534 31916 31918 28
25535 31916 31919 28
25536 31916 31920 28
25537 31921 31922 28
25538 31921 31923 28
25539 31921 31924 28
25540 31921 31925 28
25541 31926 31927 28
25542 31926 31928 28
25543 31926 31929 28
25544 31926 31930 28
25545 31931 31932 28
25546 31931 31933 28
25547 31931 31934 28
25548 31931 31935 28
25549 31936 31937 28
25550 31936 31938 28
25551 31936 31939 28
25552 31936 31940 28
25553 31941 31942 28
25554 31941 31943 28
25555 31941 31944 28
25556 31941 31945 28
25557 31946 31947 28
25558 31946 31948 28
25559 31946 31949 28
25560 31946 31950 28
25561 31951 31952 28
25562 31951 31953 28
25563 31951 31954 28
25564 31951 31955 28
25565 31956 31957 28
25566 31956 31958 28
25567 31956 31959 28
25568 31956 31960 28
25569 31961 31962 28
25570 31961 31963 28
25571 31961 31964 28
25572 31961 31965 28
25573 31966 31967 28
25574 31966 31968 28
25575 31966 31969 28
25576 31966 31970 28
25577 31971 31972 28
25578 31971 31973 28
25579 31971 31974 28
25580 31971 31975 28
25581 31976 31977 28
25582 31976 31978 28
25583 31976 31979 28
25584 31976 31980 28
25585 31981 31982 28
25586 31981 31983 28
25587 31981 31984 28
25588 31981 31985 28
25589 31986 31987 28
25590 31986 31988 28
25591 31986 31989 28
25592 31986 31990 28
25593 31991 31992 28
25594 31991 31993 28
25595 31991 31994 28
25596 31991 31995 28
25597 31996 31997 28
25598 31996 31998 28
25599 31996 31999 28
25600 31996 32000 28
25601 32001 32002 28
25602 32001 32003 28
25603 32001 32004 28
25604 32001 32005 28
25605 32006 32007 28
25606 32006 32008 28
25607 32006 32009 28
25608 32006 32010 28
25609 32011 32012 28
25610 32011 32013 28
25611 32011 32014 28
25612 32011 32015 28
25613 32016 32017 28
25614 32016 32018 28
25615 32016 32019 28
25616 32016 32020 28
25617 32021 32022 28
25618 32021 32023 28
25619 32021 32024 28
25620 32021 32025 28
25621 32026 32027 28
25622 32026 32028 28
25623 32026 32029 28
25624 32026 32030 28
25625 32031 32032 28
25626 32031 32033 28
25627 32031 32034 28
25628 32031 32035 28
25629 32036 32037 28
25630 32036 32038 28
25631 32036 32039 28
25632 32036 32040 28
25633 32041 32042 28
25634 32041 32043 28
25635 32041 32044 28
25636 32041 32045 28
25637 32046 32047 28
25638 32046 32048 28
25639 32046 32049 28
25640 32046 32050 28
25641 32051 32052 28
25642 32051 32053 28
25643 32051 32054 28
25644 32051 32055 28
25645 32056 32057 28
25646 32056 32058 28
25647 32056 32059 28
25648 32056 32060 28
25649 32061 32062 28
25650 32061 32063 28
25651 32061 32064 28
25652 32061 32065 28
25653 32066 32067 28
25654 32066 32068 28
25655 32066 32069 28
25656 32066 32070 28
25657 32071 32072 28
25658 32071 32073 28
25659 32071 32074 28
25660 32071 32075 28
25661 32076 32077 28
25662 32076 32078 28
25663 32076 32079 28
25664 32076 32080 28
25665 32081 32082 28
25666 32081 32083 28
25667 32081 32084 28
25668 32081 32085 28
25669 32086 32087 28
25670 32086 32088 28
25671 32086 32089 28
25672 32086 32090 28
25673 32091 32092 28
25674 32091 32093 28
25675 32091 32094 28
25676 32091 32095 28
25677 32096 32097 28
25678 32096 32098 28
25679 32096 32099 28
25680 32096 32100 28
25681 32101 32102 28
25682 32101 32103 28
25683 32101 32104 28
25684 32101 32105 28
25685 32106 32107 28
25686 32106 32108 28
25687 32106 32109 28
25688 32106 32110 28
25689 32111 32112 28
25690 32111 32113 28
25691 32111 32114 28
25692 32111 32115 28
25693 32116 32117 28
25694 32116 32118 28
25695 32116 32119 28
25696 32116 32120 28
25697 32121 32122 28
25698 32121 32123 28
25699 32121 32124 28
25700 32121 32125 28
25701 32126 32127 28
25702 32126 32128 28
25703 32126 32129 28
25704 32126 32130 28
25705 32131 32132 28
25706 32131 32133 28
25707 32131 32134 28
25708 32131 32135 28
25709 32136 32137 28
25710 32136 32138 28
25711 32136 32139 28
25712 32136 32140 28
25713 32141 32142 28
25714 32141 32143 28
25715 32141 32144 28
25716 32141 32145 28
25717 32146 32147 28
25718 32146 32148 28
25719 32146 32149 28
25720 32146 32150 28
25721 32151 32152 28
25722 32151 32153 28
25723 32151 32154 28
25724 32151 32155 28
25725 32156 32157 28
25726 32156 32158 28
25727 32156 32159 28
25728 32156 32160 28
25729 32161 32162 28
25730 32161 32163 28
25731 32161 32164 28
25732 32161 32165 28
25733 32166 32167 28
25734 32166 32168 28
25735 32166 32169 28
25736 32166 32170 28
25737 32171 32172 28
25738 32171 32173 28
25739 32171 32174 28
25740 32171 32175 28
25741 32176 32177 28
25742 32176 32178 28
25743 32176 32179 28
25744 32176 32180 28
25745 32181 32182 28
25746 32181 32183 28
25747 32181 32184 28
25748 32181 32185 28
25749 32186 32187 28
25750 32186 32188 28
25751 32186 32189 28
25752 32186 32190 28
25753 32191 32192 28
25754 32191 32193 28
25755 32191 32194 28
25756 32191 32195 28
25757 32196 32197 28
25758 32196 32198 28
25759 32196 32199 28
25760 32196 32200 28
25761 32201 32202 28
25762 32201 32203 28
25763 32201 32204 28
25764 32201 32205 28
25765 32206 32207 28
25766 32206 32208 28
25767 32206 32209 28
25768 32206 32210 28
25769 32211 32212 28
25770 32211 32213 28
25771 32211 32214 28
25772 32211 32215 28
25773 32216 32217 28
25774 32216 32218 28
25775 32216 32219 28
25776 32216 32220 28
25777 32221 32222 28
25778 32221 32223 28
25779 32221 32224 28
25780 32221 32225 28
25781 32226 32227 28
25782 32226 32228 28
25783 32226 32229 28
25784 32226 32230 28
25785 32231 32232 28
25786 32231 32233 28
25787 32231 32234 28
25788 32231 32235 28
25789 32236 32237 28
25790 32236 32238 28
25791 32236 32239 28
25792 32236 32240 28
25793 32241 32242 28
25794 32241 32243 28
25795 32241 32244 28
25796 32241 32245 28
25797 32246 32247 28
25798 32246 32248 28
25799 32246 32249 28
25800 32246 32250 28
25801 32251 32252 28
25802 32251 32253 28
25803 32251 32254 28
25804 32251 32255 28
25805 32256 32257 28
25806 32256 32258 28
25807 32256 32259 28
25808 32256 32260 28
25809 32261 32262 28
25810 32261 32263 28
25811 32261 32264 28
25812 32261 32265 28
25813 32266 32267 28
25814 32266 32268 28
25815 32266 32269 28
25816 32266 32270 28
25817 32271 32272 28
25818 32271 32273 28
25819 32271 32274 28
25820 32271 32275 28
25821 32276 32277 28
25822 32276 32278 28
25823 32276 32279 28
25824 32276 32280 28
25825 32281 32282 28
25826 32281 32283 28
25827 32281 32284 28
25828 32281 32285 28
25829 32286 32287 28
25830 32286 32288 28
25831 32286 32289 28
25832 32286 32290 28
25833 32291 32292 28
25834 32291 32293 28
25835 32291 32294 28
25836 32291 32295 28
25837 32296 32297 28
25838 32296 32298 28
25839 32296 32299 28
25840 32296 32300 28
25841 32301 32302 28
25842 32301 32303 28
25843 32301 32304 28
25844 32301 32305 28
25845 32306 32307 28
25846 32306 32308 28
25847 32306 32309 28
25848 32306 32310 28
25849 32311 32312 28
25850 32311 32313 28
25851 32311 32314 28
25852 32311 32315 28
25853 32316 32317 28
25854 32316 32318 28
25855 32316 32319 28
25856 32316 32320 28
25857 32321 32322 28
25858 32321 32323 28
25859 32321 32324 28
25860 32321 32325 28
25861 32326 32327 28
25862 32326 32328 28
25863 32326 32329 28
25864 32326 32330 28
25865 32331 32332 28
25866 32331 32333 28
25867 32331 32334 28
25868 32331 32335 28
25869 32336 32337 28
25870 32336 32338 28
25871 32336 32339 28
25872 32336 32340 28
25873 32341 32342 28
25874 32341 32343 28
25875 32341 32344 28
25876 32341 32345 28
25877 32346 32347 28
25878 32346 32348 28
25879 32346 32349 28
25880 32346 32350 28
25881 32351 32352 28
25882 32351 32353 28
25883 32351 32354 28
25884 32351 32355 28
25885 32356 32357 28
25886 32356 32358 28
25887 32356 32359 28
25888 32356 32360 28
25889 32361 32362 28
25890 32361 32363 28
25891 32361 32364 28
25892 32361 32365 28
25893 32366 32367 28
25894 32366 32368 28
25895 32366 32369 28
25896 32366 32370 28
25897 32371 32372 28
25898 32371 32373 28
25899 32371 32374 28
25900 32371 32375 28
25901 32376 32377 28
25902 32376 32378 28
25903 32376 32379 28
25904 32376 32380 28
25905 32381 32382 28
25906 32381 32383 28
25907 32381 32384 28
25908 32381 32385 28
25909 32386 32387 28
25910 32386 32388 28
25911 32386 32389 28
25912 32386 32390 28
25913 32391 32392 28
25914 32391 32393 28
25915 32391 32394 28
25916 32391 32395 28
25917 32396 32397 28
25918 32396 32398 28
25919 32396 32399 28
25920 32396 32400 28
25921 32401 32402 28
25922 32401 32403 28
25923 32401 32404 28
25924 32401 32405 28
25925 32406 32407 28
25926 32406 32408 28
25927 32406 32409 28
25928 32406 32410 28
25929 32411 32412 28
25930 32411 32413 28
25931 32411 32414 28
25932 32411 32415 28
25933 32416 32417 28
25934 32416 32418 28
25935 32416 32419 28
25936 32416 32420 28
25937 32421 32422 28
25938 32421 32423 28
25939 32421 32424 28
25940 32421 32425 28
25941 32426 32427 28
25942 32426 32428 28
25943 32426 32429 28
25944 32426 32430 28
25945 32431 32432 28
25946 32431 32433 28
25947 32431 32434 28
25948 32431 32435 28
25949 32436 32437 28
25950 32436 32438 28
25951 32436 32439 28
25952 32436 32440 28
25953 32441 32442 28
25954 32441 32443 28
25955 32441 32444 28
25956 32441 32445 28
25957 32446 32447 28
25958 32446 32448 28
25959 32446 32449 28
25960 32446 32450 28
25961 32451 32452 28
25962 32451 32453 28
25963 32451 32454 28
25964 32451 32455 28
25965 32456 32457 28
25966 32456 32458 28
25967 32456 32459 28
25968 32456 32460 28
25969 32461 32462 28
25970 32461 32463 28
25971 32461 32464 28
25972 32461 32465 28
25973 32466 32467 28
25974 32466 32468 28
25975 32466 32469 28
25976 32466 32470 28
25977 32471 32472 28
25978 32471 32473 28
25979 32471 32474 28
25980 32471 32475 28
25981 32476 32477 28
25982 32476 32478 28
25983 32476 32479 28
25984 32476 32480 28
25985 32481 32482 28
25986 32481 32483 28
25987 32481 32484 28
25988 32481 32485 28
25989 32486 32487 28
25990 32486 32488 28
25991 32486 32489 28
25992 32486 32490 28
25993 32491 32492 28
25994 32491 32493 28
25995 32491 32494 28
25996 32491 32495 28
25997 32496 32497 28
25998 32496 32498 28
25999 32496 32499 28
26000 32496 32500 28
26001 32501 32502 28
26002 32501 32503 28
26003 32501 32504 28
26004 32501 32505 28
26005 32506 32507 28
26006 32506 32508 28
26007 32506 32509 28
26008 32506 32510 28
26009 32511 32512 28
26010 32511 32513 28
26011 32511 32514 28
26012 32511 32515 28
26013 32516 32517 28
26014 32516 32518 28
26015 32516 32519 28
26016 32516 32520 28
26017 32521 32522 28
26018 32521 32523 28
26019 32521 32524 28
26020 32521 32525 28
26021 32526 32527 28
26022 32526 32528 28
26023 32526 32529 28
26024 32526 32530 28
26025 32531 32532 28
26026 32531 32533 28
26027 32531 32534 28
26028 32531 32535 28
26029 32536 32537 28
26030 32536 32538 28
26031 32536 32539 28
26032 32536 32540 28
26033 32541 32542 28
26034 32541 32543 28
26035 32541 32544 28
26036 32541 32545 28
26037 32546 32547 28
26038 32546 32548 28
26039 32546 32549 28
26040 32546 32550 28
26041 32551 32552 28
26042 32551 32553 28
26043 32551 32554 28
26044 32551 32555 28
26045 32556 32557 28
26046 32556 32558 28
26047 32556 32559 28
26048 32556 32560 28
26049 32561 32562 28
26050 32561 32563 28
26051 32561 32564 28
26052 32561 32565 28
26053 32566 32567 28
26054 32566 32568 28
26055 32566 32569 28
26056 32566 32570 28
26057 32571 32572 28
26058 32571 32573 28
26059 32571 32574 28
26060 32571 32575 28
26061 32576 32577 28
26062 32576 32578 28
26063 32576 32579 28
26064 32576 32580 28
26065 32581 32582 28
26066 32581 32583 28
26067 32581 32584 28
26068 32581 32585 28
26069 32586 32587 28
26070 32586 32588 28
26071 32586 32589 28
26072 32586 32590 28
26073 32591 32592 28
26074 32591 32593 28
26075 32591 32594 28
26076 32591 32595 28
26077 32596 32597 28
26078 32596 32598 28
26079 32596 32599 28
26080 32596 32600 28
26081 32601 32602 28
26082 32601 32603 28
26083 32601 32604 28
26084 32601 32605 28
26085 32606 32607 28
26086 32606 32608 28
26087 32606 32609 28
26088 32606 32610 28
26089 32611 32612 28
26090 32611 32613 28
26091 32611 32614 28
26092 32611 32615 28
26093 32616 32617 28
26094 32616 32618 28
26095 32616 32619 28
26096 32616 32620 28
26097 32621 32622 28
26098 32621 32623 28
26099 32621 32624 28
26100 32621 32625 28
26101 32626 32627 28
26102 32626 32628 28
26103 32626 32629 28
26104 32626 32630 28
26105 32631 32632 28
26106 32631 32633 28
26107 32631 32634 28
26108 32631 32635 28
26109 32636 32637 28
26110 32636 32638 28
26111 32636 32639 28
26112 32636 32640 28
26113 32641 32642 28
26114 32641 32643 28
26115 32641 32644 28
26116 32641 32645 28
26117 32646 32647 28
26118 32646 32648 28
26119 32646 32649 28
26120 32646 32650 28
26121 32651 32652 28
26122 32651 32653 28
26123 32651 32654 28
26124 32651 32655 28
26125 32656 32657 28
26126 32656 32658 28
26127 32656 32659 28
26128 32656 32660 28
26129 32661 32662 28
26130 32661 32663 28
26131 32661 32664 28
26132 32661 32665 28
26133 32666 32667 28
26134 32666 32668 28
26135 32666 32669 28
26136 32666 32670 28
26137 32671 32672 28
26138 32671 32673 28
26139 32671 32674 28
26140 32671 32675 28
26141 32676 32677 28
26142 32676 32678 28
26143 32676 32679 28
26144 32676 32680 28
26145 32681 32682 28
26146 32681 32683 28
26147 32681 32684 28
26148 32681 32685 28
26149 32686 32687 28
26150 32686 32688 28
26151 32686 32689 28
26152 32686 32690 28
26153 32691 32692 28
26154 32691 32693 28
26155 32691 32694 28
26156 32691 32695 28
26157 32696 32697 28
26158 32696 32698 28
26159 32696 32699 28
26160 32696 32700 28
26161 32701 32702 28
26162 32701 32703 28
26163 32701 32704 28
26164 32701 32705 28
26165 32706 32707 28
26166 32706 32708 28
26167 32706 32709 28
26168 32706 32710 28
26169 32711 32712 28
26170 32711 32713 28
26171 32711 32714 28
26172 32711 32715 28
26173 32716 32717 28
26174 32716 32718 28
26175 32716 32719 28
26176 32716 32720 28
26177 32721 32722 28
26178 32721 32723 28
26179 32721 32724 28
26180 32721 32725 28
26181 32726 32727 28
26182 32726 32728 28
26183 32726 32729 28
26184 32726 32730 28
26185 32731 32732 28
26186 32731 32733 28
26187 32731 32734 28
26188 32731 32735 28
26189 32736 32737 28
26190 32736 32738 28
26191 32736 32739 28
26192 32736 32740 28
26193 32741 32742 28
26194 32741 32743 28
26195 32741 32744 28
26196 32741 32745 28
26197 32746 32747 28
26198 32746 32748 28
26199 32746 32749 28
26200 32746 32750 28
26201 32751 32752 28
26202 32751 32753 28
26203 32751 32754 28
26204 32751 32755 28
26205 32756 32757 28
26206 32756 32758 28
26207 32756 32759 28
26208 32756 32760 28
26209 32761 32762 28
26210 32761 32763 28
26211 32761 32764 28
26212 32761 32765 28
26213 32766 32767 28
26214 32766 32768 28
26215 32766 32769 28
26216 32766 32770 28
26217 32771 32772 28
26218 32771 32773 28
26219 32771 32774 28
26220 32771 32775 28
26221 32776 32777 28
26222 32776 32778 28
26223 32776 32779 28
26224 32776 32780 28
26225 32781 32782 28
26226 32781 32783 28
26227 32781 32784 28
26228 32781 32785 28
26229 32786 32787 28
26230 32786 32788 28
26231 32786 32789 28
26232 32786 32790 28
26233 32791 32792 28
26234 32791 32793 28
26235 32791 32794 28
26236 32791 32795 28
26237 32796 32797 28
26238 32796 32798 28
26239 32796 32799 28
26240 32796 32800 28
26241 32801 32802 28
26242 32801 32803 28
26243 32801 32804 28
26244 32801 32805 28
26245 32806 32807 28
26246 32806 32808 28
26247 32806 32809 28
26248 32806 32810 28
26249 32811 32812 28
26250 32811 32813 28
26251 32811 32814 28
26252 32811 32815 28
26253 32816 32817 28
26254 32816 32818 28
26255 32816 32819 28
26256 32816 32820 28
26257 32821 32822 28
26258 32821 32823 28
26259 32821 32824 28
26260 32821 32825 28
26261 32826 32827 28
26262 32826 32828 28
26263 32826 32829 28
26264 32826 32830 28
26265 32831 32832 28
26266 32831 32833 28
26267 32831 32834 28
26268 32831 32835 28
26269 32836 32837 28
26270 32836 32838 28
26271 32836 32839 28
26272 32836 32840 28
26273 32841 32842 28
26274 32841 32843 28
26275 32841 32844 28
26276 32841 32845 28
26277 32846 32847 28
26278 32846 32848 28
26279 32846 32849 28
26280 32846 32850 28
26281 32851 32852 28
26282 32851 32853 28
26283 32851 32854 28
26284 32851 32855 28
26285 32856 32857 28
26286 32856 32858 28
26287 32856 32859 28
26288 32856 32860 28
26289 32861 32862 28
26290 32861 32863 28
26291 32861 32864 28
26292 32861 32865 28
26293 32866 32867 28
26294 32866 32868 28
26295 32866 32869 28
26296 32866 32870 28
26297 32871 32872 28
26298 32871 32873 28
26299 32871 32874 28
26300 32871 32875 28
26301 32876 32877 28
26302 32876 32878 28
26303 32876 32879 28
26304 32876 32880 28
26305 32881 32882 28
26306 32881 32883 28
26307 32881 32884 28
26308 32881 32885 28
26309 32886 32887 28
26310 32886 32888 28
26311 32886 32889 28
26312 32886 32890 28
26313 32891 32892 28
26314 32891 32893 28
26315 32891 32894 28
26316 32891 32895 28
26317 32896 32897 28
26318 32896 32898 28
26319 32896 32899 28
26320 32896 32900 28
26321 32901 32902 28
26322 32901 32903 28
26323 32901 32904 28
26324 32901 32905 28
26325 32906 32907 28
26326 32906 32908 28
26327 32906 32909 28
26328 32906 32910 28
26329 32911 32912 28
26330 32911 32913 28
26331 32911 32914 28
26332 32911 32915 28
26333 32916 32917 28
26334 32916 32918 28
26335 32916 32919 28
26336 32916 32920 28
26337 32921 32922 28
26338 32921 32923 28
26339 32921 32924 28
26340 32921 32925 28
26341 32926 32927 28
26342 32926 32928 28
26343 32926 32929 28
26344 32926 32930 28
26345 32931 32932 28
26346 32931 32933 28
26347 32931 32934 28
26348 32931 32935 28
26349 32936 32937 28
26350 32936 32938 28
26351 32936 32939 28
26352 32936 32940 28
26353 32941 32942 28
26354 32941 32943 28
26355 32941 32944 28
26356 32941 32945 28
26357 32946 32947 28
26358 32946 32948 28
26359 32946 32949 28
26360 32946 32950 28
26361 32951 32952 28
26362 32951 32953 28
26363 32951 32954 28
26364 32951 32955 28
26365 32956 32957 28
26366 32956 32958 28
26367 32956 32959 28
26368 32956 32960 28
26369 32961 32962 28
26370 32961 32963 28
26371 32961 32964 28
26372 32961 32965 28
26373 32966 32967 28
26374 32966 32968 28
26375 32966 32969 28
26376 32966 32970 28
26377 32971 32972 28
26378 32971 32973 28
26379 32971 32974 28
26380 32971 32975 28
26381 32976 32977 28
26382 32976 32978 28
26383 32976 32979 28
26384 32976 32980 28
26385 32981 32982 28
26386 32981 32983 28
26387 32981 32984 28
26388 32981 32985 28
26389 32986 32987 28
26390 32986 32988 28
26391 32986 32989 28
26392 32986 32990 28
26393 32991 32992 28
26394 32991 32993 28
26395 32991 32994 28
26396 32991 32995 28
26397 32996 32997 28
26398 32996 32998 28
26399 32996 32999 28
26400 32996 33000 28
26401 33001 33002 28
26402 33001 33003 28
26403 33001 33004 28
26404 33001 33005 28
26405 33006 33007 28
26406 33006 33008 28
26407 33006 33009 28
26408 33006 33010 28
26409 33011 33012 28
26410 33011 33013 28
26411 33011 33014 28
26412 33011 33015 28
26413 33016 33017 28
26414 33016 33018 28
26415 33016 33019 28
26416 33016 33020 28
26417 33021 33022 28
26418 33021 33023 28
26419 33021 33024 28
26420 33021 33025 28
26421 33026 33027 28
26422 33026 33028 28
26423 33026 33029 28
26424 33026 33030 28
26425 33031 33032 28
26426 33031 33033 28
26427 33031 33034 28
26428 33031 33035 28
26429 33036 33037 28
26430 33036 33038 28
26431 33036 33039 28
26432 33036 33040 28
26433 33041 33042 28
26434 33041 33043 28
26435 33041 33044 28
26436 33041 33045 28
26437 33046 33047 28
26438 33046 33048 28
26439 33046 33049 28
26440 33046 33050 28
26441 33051 33052 28
26442 33051 33053 28
26443 33051 33054 28
26444 33051 33055 28
26445 33056 33057 28
26446 33056 33058 28
26447 33056 33059 28
26448 33056 33060 28
26449 33061 33062 28
26450 33061 33063 28
26451 33061 33064 28
26452 33061 33065 28
26453 33066 33067 28
26454 33066 33068 28
26455 33066 33069 28
26456 33066 33070 28
26457 33071 33072 28
26458 33071 33073 28
26459 33071 33074 28
26460 33071 33075 28
26461 33076 33077 28
26462 33076 33078 28
26463 33076 33079 28
26464 33076 33080 28
26465 33081 33082 28
26466 33081 33083 28
26467 33081 33084 28
26468 33081 33085 28
26469 33086 33087 28
26470 33086 33088 28
26471 33086 33089 28
26472 33086 33090 28
26473 33091 33092 28
26474 33091 33093 28
26475 33091 33094 28
26476 33091 33095 28
26477 33096 33097 28
26478 33096 33098 28
26479 33096 33099 28
26480 33096 33100 28
26481 33101 33102 28
26482 33101 33103 28
26483 33101 33104 28
26484 33101 33105 28
26485 33106 33107 28
26486 33106 33108 28
26487 33106 33109 28
26488 33106 33110 28
26489 33111 33112 28
26490 33111 33113 28
26491 33111 33114 28
26492 33111 33115 28
26493 33116 33117 28
26494 33116 33118 28
26495 33116 33119 28
26496 33116 33120 28
26497 33121 33122 28
26498 33121 33123 28
26499 33121 33124 28
26500 33121 33125 28
26501 33126 33127 28
26502 33126 33128 28
26503 33126 33129 28
26504 33126 33130 28
26505 33131 33132 28
26506 33131 33133 28
26507 33131 33134 28
26508 33131 33135 28
26509 33136 33137 28
26510 33136 33138 28
26511 33136 33139 28
26512 33136 33140 28
26513 33141 33142 28
26514 33141 33143 28
26515 33141 33144 28
26516 33141 33145 28
26517 33146 33147 28
26518 33146 33148 28
26519 33146 33149 28
26520 33146 33150 28
26521 33151 33152 28
26522 33151 33153 28
26523 33151 33154 28
26524 33151 33155 28
26525 33156 33157 28
26526 33156 33158 28
26527 33156 33159 28
26528 33156 33160 28
26529 33161 33162 28
26530 33161 33163 28
26531 33161 33164 28
26532 33161 33165 28
26533 33166 33167 28
26534 33166 33168 28
26535 33166 33169 28
26536 33166 33170 28
26537 33171 33172 28
26538 33171 33173 28
26539 33171 33174 28
26540 33171 33175 28
26541 33176 33177 28
26542 33176 33178 28
26543 33176 33179 28
26544 33176 33180 28
26545 33181 33182 28
26546 33181 33183 28
26547 33181 33184 28
26548 33181 33185 28
26549 33186 33187 28
26550 33186 33188 28
26551 33186 33189 28
26552 33186 33190 28
26553 33191 33192 28
26554 33191 33193 28
26555 33191 33194 28
26556 33191 33195 28
26557 33196 33197 28
26558 33196 33198 28
26559 33196 33199 28
26560 33196 33200 28
26561 33201 33202 28
26562 33201 33203 28
26563 33201 33204 28
26564 33201 33205 28
26565 33206 33207 28
26566 33206 33208 28
26567 33206 33209 28
26568 33206 33210 28
26569 33211 33212 28
26570 33211 33213 28
26571 33211 33214 28
26572 33211 33215 28
26573 33216 33217 28
26574 33216 33218 28
26575 33216 33219 28
26576 33216 33220 28
26577 33221 33222 28
26578 33221 33223 28
26579 33221 33224 28
26580 33221 33225 28
26581 33226 33227 28
26582 33226 33228 28
26583 33226 33229 28
26584 33226 33230 28
26585 33231 33232 28
26586 33231 33233 28
26587 33231 33234 28
26588 33231 33235 28
26589 33236 33237 28
26590 33236 33238 28
26591 33236 33239 28
26592 33236 33240 28
26593 33241 33242 28
26594 33241 33243 28
26595 33241 33244 28
26596 33241 33245 28
26597 33246 33247 28
26598 33246 33248 28
26599 33246 33249 28
26600 33246 33250 28
26601 33251 33252 28
26602 33251 33253 28
26603 33251 33254 28
26604 33251 33255 28
26605 33256 33257 28
26606 33256 33258 28
26607 33256 33259 28
26608 33256 33260 28
26609 33261 33262 28
26610 33261 33263 28
26611 33261 33264 28
26612 33261 33265 28
26613 33266 33267 28
26614 33266 33268 28
26615 33266 33269 28
26616 33266 33270 28
26617 33271 33272 28
26618 33271 33273 28
26619 33271 33274 28
26620 33271 33275 28
26621 33276 33277 28
26622 33276 33278 28
26623 33276 33279 28
26624 33276 33280 28
26625 33281 33282 28
26626 33281 33283 28
26627 33281 33284 28
26628 33281 33285 28
26629 33286 33287 28
26630 33286 33288 28
26631 33286 33289 28
26632 33286 33290 28
26633 33291 33292 28
26634 33291 33293 28
26635 33291 33294 28
26636 33291 33295 28
26637 33296 33297 28
26638 33296 33298 28
26639 33296 33299 28
26640 33296 33300 28
26641 33301 33302 28
26642 33301 33303 28
26643 33301 33304 28
26644 33301 33305 28
26645 33306 33307 28
26646 33306 33308 28
26647 33306 33309 28
26648 33306 33310 28
26649 33311 33312 28
26650 33311 33313 28
26651 33311 33314 28
26652 33311 33315 28
26653 33316 33317 28
26654 33316 33318 28
26655 33316 33319 28
26656 33316 33320 28
26657 33321 33322 28
26658 33321 33323 28
26659 33321 33324 28
26660 33321 33325 28
26661 33326 33327 28
26662 33326 33328 28
26663 33326 33329 28
26664 33326 33330 28
26665 33331 33332 28
26666 33331 33333 28
26667 33331 33334 28
26668 33331 33335 28
26669 33336 33337 28
26670 33336 33338 28
26671 33336 33339 28
26672 33336 33340 28
26673 33341 33342 28
26674 33341 33343 28
26675 33341 33344 28
26676 33341 33345 28
26677 33346 33347 28
26678 33346 33348 28
26679 33346 33349 28
26680 33346 33350 28
26681 33351 33352 28
26682 33351 33353 28
26683 33351 33354 28
26684 33351 33355 28
26685 33356 33357 28
26686 33356 33358 28
26687 33356 33359 28
26688 33356 33360 28
26689 33361 33362 28
26690 33361 33363 28
26691 33361 33364 28
26692 33361 33365 28
26693 33366 33367 28
26694 33366 33368 28
26695 33366 33369 28
26696 33366 33370 28
26697 33371 33372 28
26698 33371 33373 28
26699 33371 33374 28
26700 33371 33375 28
26701 33376 33377 28
26702 33376 33378 28
26703 33376 33379 28
26704 33376 33380 28
26705 33381 33382 28
26706 33381 33383 28
26707 33381 33384 28
26708 33381 33385 28
26709 33386 33387 28
26710 33386 33388 28
26711 33386 33389 28
26712 33386 33390 28
26713 33391 33392 28
26714 33391 33393 28
26715 33391 33394 28
26716 33391 33395 28
26717 33396 33397 28
26718 33396 33398 28
26719 33396 33399 28
26720 33396 33400 28
26721 33401 33402 28
26722 33401 33403 28
26723 33401 33404 28
26724 33401 33405 28
26725 33406 33407 28
26726 33406 33408 28
26727 33406 33409 28
26728 33406 33410 28
26729 33411 33412 28
26730 33411 33413 28
26731 33411 33414 28
26732 33411 33415 28
26733 33416 33417 28
26734 33416 33418 28
26735 33416 33419 28
26736 33416 33420 28
26737 33421 33422 28
26738 33421 33423 28
26739 33421 33424 28
26740 33421 33425 28
26741 33426 33427 28
26742 33426 33428 28
26743 33426 33429 28
26744 33426 33430 28
26745 33431 33432 28
26746 33431 33433 28
26747 33431 33434 28
26748 33431 33435 28
26749 33436 33437 28
26750 33436 33438 28
26751 33436 33439 28
26752 33436 33440 28
26753 33441 33442 28
26754 33441 33443 28
26755 33441 33444 28
26756 33441 33445 28
26757 33446 33447 28
26758 33446 33448 28
26759 33446 33449 28
26760 33446 33450 28
26761 33451 33452 28
26762 33451 33453 28
26763 33451 33454 28
26764 33451 33455 28
26765 33456 33457 28
26766 33456 33458 28
26767 33456 33459 28
26768 33456 33460 28
26769 33461 33462 28
26770 33461 33463 28
26771 33461 33464 28
26772 33461 33465 28
26773 33466 33467 28
26774 33466 33468 28
26775 33466 33469 28
26776 33466 33470 28
26777 33471 33472 28
26778 33471 33473 28
26779 33471 33474 28
26780 33471 33475 28
26781 33476 33477 28
26782 33476 33478 28
26783 33476 33479 28
26784 33476 33480 28
26785 33481 33482 28
26786 33481 33483 28
26787 33481 33484 28
26788 33481 33485 28
26789 33486 33487 28
26790 33486 33488 28
26791 33486 33489 28
26792 33486 33490 28
26793 33491 33492 28
26794 33491 33493 28
26795 33491 33494 28
26796 33491 33495 28
26797 33496 33497 28
26798 33496 33498 28
26799 33496 33499 28
26800 33496 33500 28
26801 33501 33502 28
26802 33501 33503 28
26803 33501 33504 28
26804 33501 33505 28
26805 33506 33507 28
26806 33506 33508 28
26807 33506 33509 28
26808 33506 33510 28
26809 33511 33512 28
26810 33511 33513 28
26811 33511 33514 28
26812 33511 33515 28
26813 33516 33517 28
26814 33516 33518 28
26815 33516 33519 28
26816 33516 33520 28
26817 33521 33522 28
26818 33521 33523 28
26819 33521 33524 28
26820 33521 33525 28
26821 33526 33527 28
26822 33526 33528 28
26823 33526 33529 28
26824 33526 33530 28
26825 33531 33532 28
26826 33531 33533 28
26827 33531 33534 28
26828 33531 33535 28
26829 33536 33537 28
26830 33536 33538 28
26831 33536 33539 28
26832 33536 33540 28
26833 33541 33542 28
26834 33541 33543 28
26835 33541 33544 28
26836 33541 33545 28
26837 33546 33547 28
26838 33546 33548 28
26839 33546 33549 28
26840 33546 33550 28
26841 33551 33552 28
26842 33551 33553 28
26843 33551 33554 28
26844 33551 33555 28
26845 33556 33557 28
26846 33556 33558 28
26847 33556 33559 28
26848 33556 33560 28
26849 33561 33562 28
26850 33561 33563 28
26851 33561 33564 28
26852 33561 33565 28
26853 33566 33567 28
26854 33566 33568 28
26855 33566 33569 28
26856 33566 33570 28
26857 33571 33572 28
26858 33571 33573 28
26859 33571 33574 28
26860 33571 33575 28
26861 33576 33577 28
26862 33576 33578 28
26863 33576 33579 28
26864 33576 33580 28
26865 33581 33582 28
26866 33581 33583 28
26867 33581 33584 28
26868 33581 33585 28
26869 33586 33587 28
26870 33586 33588 28
26871 33586 33589 28
26872 33586 33590 28
26873 33591 33592 28
26874 33591 33593 28
26875 33591 33594 28
26876 33591 33595 28
26877 33596 33597 28
26878 33596 33598 28
26879 33596 33599 28
26880 33596 33600 28
26881 33601 33602 28
26882 33601 33603 28
26883 33601 33604 28
26884 33601 33605 28
26885 33606 33607 28
26886 33606 33608 28
26887 33606 33609 28
26888 33606 33610 28
26889 33611 33612 28
26890 33611 33613 28
26891 33611 33614 28
26892 33611 33615 28
26893 33616 33617 28
26894 33616 33618 28
26895 33616 33619 28
26896 33616 33620 28
26897 33621 33622 28
26898 33621 33623 28
26899 33621 33624 28
26900 33621 33625 28
26901 33626 33627 28
26902 33626 33628 28
26903 33626 33629 28
26904 33626 33630 28
26905 33631 33632 28
26906 33631 33633 28
26907 33631 33634 28
26908 33631 33635 28
26909 33636 33637 28
26910 33636 33638 28
26911 33636 33639 28
26912 33636 33640 28
26913 33641 33642 28
26914 33641 33643 28
26915 33641 33644 28
26916 33641 33645 28
26917 33646 33647 28
26918 33646 33648 28
26919 33646 33649 28
26920 33646 33650 28
26921 33651 33652 28
26922 33651 33653 28
26923 33651 33654 28
26924 33651 33655 28
26925 33656 33657 28
26926 33656 33658 28
26927 33656 33659 28
26928 33656 33660 28
26929 33661 33662 28
26930 33661 33663 28
26931 33661 33664 28
26932 33661 33665 28
26933 33666 33667 28
26934 33666 33668 28
26935 33666 33669 28
26936 33666 33670 28
26937 33671 33672 28
26938 33671 33673 28
26939 33671 33674 28
26940 33671 33675 28
26941 33676 33677 28
26942 33676 33678 28
26943 33676 33679 28
26944 33676 33680 28
26945 33681 33682 28
26946 33681 33683 28
26947 33681 33684 28
26948 33681 33685 28
26949 33686 33687 28
26950 33686 33688 28
26951 33686 33689 28
26952 33686 33690 28
26953 33691 33692 28
26954 33691 33693 28
26955 33691 33694 28
26956 33691 33695 28
26957 33696 33697 28
26958 33696 33698 28
26959 33696 33699 28
26960 33696 33700 28
26961 33701 33702 28
26962 33701 33703 28
26963 33701 33704 28
26964 33701 33705 28
26965 33706 33707 28
26966 33706 33708 28
26967 33706 33709 28
26968 33706 33710 28
26969 33711 33712 28
26970 33711 33713 28
26971 33711 33714 28
26972 33711 33715 28
26973 33716 33717 28
26974 33716 33718 28
26975 33716 33719 28
26976 33716 33720 28
26977 33721 33722 28
26978 33721 33723 28
26979 33721 33724 28
26980 33721 33725 28
26981 33726 33727 28
26982 33726 33728 28
26983 33726 33729 28
26984 33726 33730 28
26985 33731 33732 28
26986 33731 33733 28
26987 33731 33734 28
26988 33731 33735 28
26989 33736 33737 28
26990 33736 33738 28
26991 33736 33739 28
26992 33736 33740 28
26993 33741 33742 28
26994 33741 33743 28
26995 33741 33744 28
26996 33741 33745 28
26997 33746 33747 28
26998 33746 33748 28
26999 33746 33749 28
27000 33746 33750 28
27001 33751 33752 28
27002 33751 33753 28
27003 33751 33754 28
27004 33751 33755 28
27005 33756 33757 28
27006 33756 33758 28
27007 33756 33759 28
27008 33756 33760 28
27009 33761 33762 28
27010 33761 33763 28
27011 33761 33764 28
27012 33761 33765 28
27013 33766 33767 28
27014 33766 33768 28
27015 33766 33769 28
27016 33766 33770 28
27017 33771 33772 28
27018 33771 33773 28
27019 33771 33774 28
27020 33771 33775 28
27021 33776 33777 28
27022 33776 33778 28
27023 33776 33779 28
27024 33776 33780 28
27025 33781 33782 28
27026 33781 33783 28
27027 33781 33784 28
27028 33781 33785 28
27029 33786 33787 28
27030 33786 33788 28
27031 33786 33789 28
27032 33786 33790 28
27033 33791 33792 28
27034 33791 33793 28
27035 33791 33794 28
27036 33791 33795 28
27037 33796 33797 28
27038 33796 33798 28
27039 33796 33799 28
27040 33796 33800 28
27041 33801 33802 28
27042 33801 33803 28
27043 33801 33804 28
27044 33801 33805 28
27045 33806 33807 28
27046 33806 33808 28
27047 33806 33809 28
27048 33806 33810 28
27049 33811 33812 28
27050 33811 33813 28
27051 33811 33814 28
27052 33811 33815 28
27053 33816 33817 28
27054 33816 33818 28
27055 33816 33819 28
27056 33816 33820 28
27057 33821 33822 28
27058 33821 33823 28
27059 33821 33824 28
27060 33821 33825 28
27061 33826 33827 28
27062 33826 33828 28
27063 33826 33829 28
27064 33826 33830 28
27065 33831 33832 28
27066 33831 33833 28
27067 33831 33834 28
27068 33831 33835 28
27069 33836 33837 28
27070 33836 33838 28
27071 33836 33839 28
27072 33836 33840 28
27073 33841 33842 28
27074 33841 33843 28
27075 33841 33844 28
27076 33841 33845 28
27077 33846 33847 28
27078 33846 33848 28
27079 33846 33849 28
27080 33846 33850 28
27081 33851 33852 28
27082 33851 33853 28
27083 33851 33854 28
27084 33851 33855 28
27085 33856 33857 28
27086 33856 33858 28
27087 33856 33859 28
27088 33856 33860 28
27089 33861 33862 28
27090 33861 33863 28
27091 33861 33864 28
27092 33861 33865 28
27093 33866 33867 28
27094 33866 33868 28
27095 33866 33869 28
27096 33866 33870 28
27097 33871 33872 28
27098 33871 33873 28
27099 33871 33874 28
27100 33871 33875 28
27101 33876 33877 28
27102 33876 33878 28
27103 33876 33879 28
27104 33876 33880 28
27105 33881 33882 28
27106 33881 33883 28
27107 33881 33884 28
27108 33881 33885 28
27109 33886 33887 28
27110 33886 33888 28
27111 33886 33889 28
27112 33886 33890 28
27113 33891 33892 28
27114 33891 33893 28
27115 33891 33894 28
27116 33891 33895 28
27117 33896 33897 28
27118 33896 33898 28
27119 33896 33899 28
27120 33896 33900 28
27121 33901 33902 28
27122 33901 33903 28
27123 33901 33904 28
27124 33901 33905 28
27125 33906 33907 28
27126 33906 33908 28
27127 33906 33909 28
27128 33906 33910 28
27129 33911 33912 28
27130 33911 33913 28
27131 33911 33914 28
27132 33911 33915 28
27133 33916 33917 28
27134 33916 33918 28
27135 33916 33919 28
27136 33916 33920 28
27137 33921 33922 28
27138 33921 33923 28
27139 33921 33924 28
27140 33921 33925 28
27141 33926 33927 28
27142 33926 33928 28
27143 33926 33929 28
27144 33926 33930 28
27145 33931 33932 28
27146 33931 33933 28
27147 33931 33934 28
27148 33931 33935 28
27149 33936 33937 28
27150 33936 33938 28
27151 33936 33939 28
27152 33936 33940 28
27153 33941 33942 28
27154 33941 33943 28
27155 33941 33944 28
27156 33941 33945 28
27157 33946 33947 28
27158 33946 33948 28
27159 33946 33949 28
27160 33946 33950 28
27161 33951 33952 28
27162 33951 33953 28
27163 33951 33954 28
27164 33951 33955 28
27165 33956 33957 28
27166 33956 33958 28
27167 33956 33959 28
27168 33956 33960 28
27169 33961 33962 28
27170 33961 33963 28
27171 33961 33964 28
27172 33961 33965 28
27173 33966 33967 28
27174 33966 33968 28
27175 33966 33969 28
27176 33966 33970 28
27177 33971 33972 28
27178 33971 33973 28
27179 33971 33974 28
27180 33971 33975 28
27181 33976 33977 28
27182 33976 33978 28
27183 33976 33979 28
27184 33976 33980 28
27185 33981 33982 28
27186 33981 33983 28
27187 33981 33984 28
27188 33981 33985 28
27189 33986 33987 28
27190 33986 33988 28
27191 33986 33989 28
27192 33986 33990 28
27193 33991 33992 28
27194 33991 33993 28
27195 33991 33994 28
27196 33991 33995 28
27197 33996 33997 28
27198 33996 33998 28
27199 33996 33999 28
27200 33996 34000 28
27201 34001 34002 28
27202 34001 34003 28
27203 34001 34004 28
27204 34001 34005 28
27205 34006 34007 28
27206 34006 34008 28
27207 34006 34009 28
27208 34006 34010 28
27209 34011 34012 28
27210 34011 34013 28
27211 34011 34014 28
27212 34011 34015 28
27213 34016 34017 28
27214 34016 34018 28
27215 34016 34019 28
27216 34016 34020 28
27217 34021 34022 28
27218 34021 34023 28
27219 34021 34024 28
27220 34021 34025 28
27221 34026 34027 28
27222 34026 34028 28
27223 34026 34029 28
27224 34026 34030 28
27225 34031 34032 28
27226 34031 34033 28
27227 34031 34034 28
27228 34031 34035 28
27229 34036 34037 28
27230 34036 34038 28
27231 34036 34039 28
27232 34036 34040 28
27233 34041 34042 28
27234 34041 34043 28
27235 34041 34044 28
27236 34041 34045 28
27237 34046 34047 28
27238 34046 34048 28
27239 34046 34049 28
27240 34046 34050 28
27241 34051 34052 28
27242 34051 34053 28
27243 34051 34054 28
27244 34051 34055 28
27245 34056 34057 28
27246 34056 34058 28
27247 34056 34059 28
27248 34056 34060 28
27249 34061 34062 28
27250 34061 34063 28
27251 34061 34064 28
27252 34061 34065 28
27253 34066 34067 28
27254 34066 34068 28
27255 34066 34069 28
27256 34066 34070 28
27257 34071 34072 28
27258 34071 34073 28
27259 34071 34074 28
27260 34071 34075 28
27261 34076 34077 28
27262 34076 34078 28
27263 34076 34079 28
27264 34076 34080 28
27265 34081 34082 28
27266 34081 34083 28
27267 34081 34084 28
27268 34081 34085 28
27269 34086 34087 28
27270 34086 34088 28
27271 34086 34089 28
27272 34086 34090 28
27273 34091 34092 28
27274 34091 34093 28
27275 34091 34094 28
27276 34091 34095 28
27277 34096 34097 28
27278 34096 34098 28
27279 34096 34099 28
27280 34096 34100 28
27281 34101 34102 28
27282 34101 34103 28
27283 34101 34104 28
27284 34101 34105 28
27285 34106 34107 28
27286 34106 34108 28
27287 34106 34109 28
27288 34106 34110 28
27289 34111 34112 28
27290 34111 34113 28
27291 34111 34114 28
27292 34111 34115 28
27293 34116 34117 28
27294 34116 34118 28
27295 34116 34119 28
27296 34116 34120 28
27297 34121 34122 28
27298 34121 34123 28
27299 34121 34124 28
27300 34121 34125 28
27301 34126 34127 28
27302 34126 34128 28
27303 34126 34129 28
27304 34126 34130 28
27305 34131 34132 28
27306 34131 34133 28
27307 34131 34134 28
27308 34131 34135 28
27309 34136 34137 28
27310 34136 34138 28
27311 34136 34139 28
27312 34136 34140 28
27313 34141 34142 28
27314 34141 34143 28
27315 34141 34144 28
27316 34141 34145 28
27317 34146 34147 28
27318 34146 34148 28
27319 34146 34149 28
27320 34146 34150 28
27321 34151 34152 28
27322 34151 34153 28
27323 34151 34154 28
27324 34151 34155 28
27325 34156 34157 28
27326 34156 34158 28
27327 34156 34159 28
27328 34156 34160 28
27329 34161 34162 28
27330 34161 34163 28
27331 34161 34164 28
27332 34161 34165 28
27333 34166 34167 28
27334 34166 34168 28
27335 34166 34169 28
27336 34166 34170 28
27337 34171 34172 28
27338 34171 34173 28
27339 34171 34174 28
27340 34171 34175 28
27341 34176 34177 28
27342 34176 34178 28
27343 34176 34179 28
27344 34176 34180 28
27345 34181 34182 28
27346 34181 34183 28
27347 34181 34184 28
27348 34181 34185 28
27349 34186 34187 28
27350 34186 34188 28
27351 34186 34189 28
27352 34186 34190 28
27353 34191 34192 28
27354 34191 34193 28
27355 34191 34194 28
27356 34191 34195 28
27357 34196 34197 28
27358 34196 34198 28
27359 34196 34199 28
27360 34196 34200 28
27361 34201 34202 28
27362 34201 34203 28
27363 34201 34204 28
27364 34201 34205 28
27365 34206 34207 28
27366 34206 34208 28
27367 34206 34209 28
27368 34206 34210 28
27369 34211 34212 28
27370 34211 34213 28
27371 34211 34214 28
27372 34211 34215 28
27373 34216 34217 28
27374 34216 34218 28
27375 34216 34219 28
27376 34216 34220 28
27377 34221 34222 28
27378 34221 34223 28
27379 34221 34224 28
27380 34221 34225 28
27381 34226 34227 28
27382 34226 34228 28
27383 34226 34229 28
27384 34226 34230 28
27385 34231 34232 28
27386 34231 34233 28
27387 34231 34234 28
27388 34231 34235 28
27389 34236 34237 28
27390 34236 34238 28
27391 34236 34239 28
27392 34236 34240 28
27393 34241 34242 28
27394 34241 34243 28
27395 34241 34244 28
27396 34241 34245 28
27397 34246 34247 28
27398 34246 34248 28
27399 34246 34249 28
27400 34246 34250 28
27401 34251 34252 28
27402 34251 34253 28
27403 34251 34254 28
27404 34251 34255 28
27405 34256 34257 28
27406 34256 34258 28
27407 34256 34259 28
27408 34256 34260 28
27409 34261 34262 28
27410 34261 34263 28
27411 34261 34264 28
27412 34261 34265 28
27413 34266 34267 28
27414 34266 34268 28
27415 34266 34269 28
27416 34266 34270 28
27417 34271 34272 28
27418 34271 34273 28
27419 34271 34274 28
27420 34271 34275 28
27421 34276 34277 28
27422 34276 34278 28
27423 34276 34279 28
27424 34276 34280 28
27425 34281 34282 28
27426 34281 34283 28
27427 34281 34284 28
27428 34281 34285 28
27429 34286 34287 28
27430 34286 34288 28
27431 34286 34289 28
27432 34286 34290 28
27433 34291 34292 28
27434 34291 34293 28
27435 34291 34294 28
27436 34291 34295 28
27437 34296 34297 28
27438 34296 34298 28
27439 34296 34299 28
27440 34296 34300 28
27441 34301 34302 28
27442 34301 34303 28
27443 34301 34304 28
27444 34301 34305 28
27445 34306 34307 28
27446 34306 34308 28
27447 34306 34309 28
27448 34306 34310 28
27449 34311 34312 28
27450 34311 34313 28
27451 34311 34314 28
27452 34311 34315 28
27453 34316 34317 28
27454 34316 34318 28
27455 34316 34319 28
27456 34316 34320 28
27457 34321 34322 28
27458 34321 34323 28
27459 34321 34324 28
27460 34321 34325 28
27461 34326 34327 28
27462 34326 34328 28
27463 34326 34329 28
27464 34326 34330 28
27465 34331 34332 28
27466 34331 34333 28
27467 34331 34334 28
27468 34331 34335 28
27469 34336 34337 28
27470 34336 34338 28
27471 34336 34339 28
27472 34336 34340 28
27473 34341 34342 28
27474 34341 34343 28
27475 34341 34344 28
27476 34341 34345 28
27477 34346 34347 28
27478 34346 34348 28
27479 34346 34349 28
27480 34346 34350 28
27481 34351 34352 28
27482 34351 34353 28
27483 34351 34354 28
27484 34351 34355 28
27485 34356 34357 28
27486 34356 34358 28
27487 34356 34359 28
27488 34356 34360 28
27489 34361 34362 28
27490 34361 34363 28
27491 34361 34364 28
27492 34361 34365 28
27493 34366 34367 28
27494 34366 34368 28
27495 34366 34369 28
27496 34366 34370 28
27497 34371 34372 28
27498 34371 34373 28
27499 34371 34374 28
27500 34371 34375 28
27501 34376 34377 28
27502 34376 34378 28
27503 34376 34379 28
27504 34376 34380 28
27505 34381 34382 28
27506 34381 34383 28
27507 34381 34384 28
27508 34381 34385 28
27509 34386 34387 28
27510 34386 34388 28
27511 34386 34389 28
27512 34386 34390 28
27513 34391 34392 28
27514 34391 34393 28
27515 34391 34394 28
27516 34391 34395 28
27517 34396 34397 28
27518 34396 34398 28
27519 34396 34399 28
27520 34396 34400 28
27521 34401 34402 28
27522 34401 34403 28
27523 34401 34404 28
27524 34401 34405 28
27525 34406 34407 28
27526 34406 34408 28
27527 34406 34409 28
27528 34406 34410 28
27529 34411 34412 28
27530 34411 34413 28
27531 34411 34414 28
27532 34411 34415 28
27533 34416 34417 28
27534 34416 34418 28
27535 34416 34419 28
27536 34416 34420 28
27537 34421 34422 28
27538 34421 34423 28
27539 34421 34424 28
27540 34421 34425 28
27541 34426 34427 28
27542 34426 34428 28
27543 34426 34429 28
27544 34426 34430 28
27545 34431 34432 28
27546 34431 34433 28
27547 34431 34434 28
27548 34431 34435 28
27549 34436 34437 28
27550 34436 34438 28
27551 34436 34439 28
27552 34436 34440 28
27553 34441 34442 28
27554 34441 34443 28
27555 34441 34444 28
27556 34441 34445 28
27557 34446 34447 28
27558 34446 34448 28
27559 34446 34449 28
27560 34446 34450 28
27561 34451 34452 28
27562 34451 34453 28
27563 34451 34454 28
27564 34451 34455 28
27565 34456 34457 28
27566 34456 34458 28
27567 34456 34459 28
27568 34456 34460 28
27569 34461 34462 28
27570 34461 34463 28
27571 34461 34464 28
27572 34461 34465 28
27573 34466 34467 28
27574 34466 34468 28
27575 34466 34469 28
27576 34466 34470 28
27577 34471 34472 28
27578 34471 34473 28
27579 34471 34474 28
27580 34471 34475 28
27581 34476 34477 28
27582 34476 34478 28
27583 34476 34479 28
27584 34476 34480 28
27585 34481 34482 28
27586 34481 34483 28
27587 34481 34484 28
27588 34481 34485 28
27589 34486 34487 28
27590 34486 34488 28
27591 34486 34489 28
27592 34486 34490 28
27593 34491 34492 28
27594 34491 34493 28
27595 34491 34494 28
27596 34491 34495 28
27597 34496 34497 28
27598 34496 34498 28
27599 34496 34499 28
27600 34496 34500 28
27601 34501 34502 28
27602 34501 34503 28
27603 34501 34504 28
27604 34501 34505 28
27605 34506 34507 28
27606 34506 34508 28
27607 34506 34509 28
27608 34506 34510 28
27609 34511 34512 28
27610 34511 34513 28
27611 34511 34514 28
27612 34511 34515 28
27613 34516 34517 28
27614 34516 34518 28
27615 34516 34519 28
27616 34516 34520 28
27617 34521 34522 28
27618 34521 34523 28
27619 34521 34524 28
27620 34521 34525 28
27621 34526 34527 28
27622 34526 34528 28
27623 34526 34529 28
27624 34526 34530 28
27625 34531 34532 28
27626 34531 34533 28
27627 34531 34534 28
27628 34531 34535 28
27629 34536 34537 28
27630 34536 34538 28
27631 34536 34539 28
27632 34536 34540 28
27633 34541 34542 28
27634 34541 34543 28
27635 34541 34544 28
27636 34541 34545 28
27637 34546 34547 28
27638 34546 34548 28
27639 34546 34549 28
27640 34546 34550 28
27641 34551 34552 28
27642 34551 34553 28
27643 34551 34554 28
27644 34551 34555 28
27645 34556 34557 28
27646 34556 34558 28
27647 34556 34559 28
27648 34556 34560 28
27649 34561 34562 28
27650 34561 34563 28
27651 34561 34564 28
27652 34561 34565 28
27653 34566 34567 28
27654 34566 34568 28
27655 34566 34569 28
27656 34566 34570 28
27657 34571 34572 28
27658 34571 34573 28
27659 34571 34574 28
27660 34571 34575 28
27661 34576 34577 28
27662 34576 34578 28
27663 34576 34579 28
27664 34576 34580 28
27665 34581 34582 28
27666 34581 34583 28
27667 34581 34584 28
27668 34581 34585 28
27669 34586 34587 28
27670 34586 34588 28
27671 34586 34589 28
27672 34586 34590 28
27673 34591 34592 28
27674 34591 34593 28
27675 34591 34594 28
27676 34591 34595 28
27677 34596 34597 28
27678 34596 34598 28
27679 34596 34599 28
27680 34596 34600 28
27681 34601 34602 28
27682 34601 34603 28
27683 34601 34604 28
27684 34601 34605 28
27685 34606 34607 28
27686 34606 34608 28
27687 34606 34609 28
27688 34606 34610 28
27689 34611 34612 28
27690 34611 34613 28
27691 34611 34614 28
27692 34611 34615 28
27693 34616 34617 28
27694 34616 34618 28
27695 34616 34619 28
27696 34616 34620 28
27697 34621 34622 28
27698 34621 34623 28
27699 34621 34624 28
27700 34621 34625 28
27701 34626 34627 28
27702 34626 34628 28
27703 34626 34629 28
27704 34626 34630 28
27705 34631 34632 28
27706 34631 34633 28
27707 34631 34634 28
27708 34631 34635 28
27709 34636 34637 28
27710 34636 34638 28
27711 34636 34639 28
27712 34636 34640 28
27713 34641 34642 28
27714 34641 34643 28
27715 34641 34644 28
27716 34641 34645 28
27717 34646 34647 28
27718 34646 34648 28
27719 34646 34649 28
27720 34646 34650 28
27721 34651 34652 28
27722 34651 34653 28
27723 34651 34654 28
27724 34651 34655 28
27725 34656 34657 28
27726 34656 34658 28
27727 34656 34659 28
27728 34656 34660 28
27729 34661 34662 28
27730 34661 34663 28
27731 34661 34664 28
27732 34661 34665 28
27733 34666 34667 28
27734 34666 34668 28
27735 34666 34669 28
27736 34666 34670 28
27737 34671 34672 28
27738 34671 34673 28
27739 34671 34674 28
27740 34671 34675 28
27741 34676 34677 28
27742 34676 34678 28
27743 34676 34679 28
27744 34676 34680 28
27745 34681 34682 28
27746 34681 34683 28
27747 34681 34684 28
27748 34681 34685 28
27749 34686 34687 28
27750 34686 34688 28
27751 34686 34689 28
27752 34686 34690 28
27753 34691 34692 28
27754 34691 34693 28
27755 34691 34694 28
27756 34691 34695 28
27757 34696 34697 28
27758 34696 34698 28
27759 34696 34699 28
27760 34696 34700 28
27761 34701 34702 28
27762 34701 34703 28
27763 34701 34704 28
27764 34701 34705 28
27765 34706 34707 28
27766 34706 34708 28
27767 34706 34709 28
27768 34706 34710 28
27769 34711 34712 28
27770 34711 34713 28
27771 34711 34714 28
27772 34711 34715 28
27773 34716 34717 28
27774 34716 34718 28
27775 34716 34719 28
27776 34716 34720 28
27777 34721 34722 28
27778 34721 34723 28
27779 34721 34724 28
27780 34721 34725 28
27781 34726 34727 28
27782 34726 34728 28
27783 34726 34729 28
27784 34726 34730 28
27785 34731 34732 28
27786 34731 34733 28
27787 34731 34734 28
27788 34731 34735 28
27789 34736 34737 28
27790 34736 34738 28
27791 34736 34739 28
27792 34736 34740 28
27793 34741 34742 28
27794 34741 34743 28
27795 34741 34744 28
27796 34741 34745 28
27797 34746 34747 28
27798 34746 34748 28
27799 34746 34749 28
27800 34746 34750 28
27801 34751 34752 28
27802 34751 34753 28
27803 34751 34754 28
27804 34751 34755 28
27805 34756 34757 28
27806 34756 34758 28
27807 34756 34759 28
27808 34756 34760 28
27809 34761 34762 28
27810 34761 34763 28
27811 34761 34764 28
27812 34761 34765 28
27813 34766 34767 28
27814 34766 34768 28
27815 34766 34769 28
27816 34766 34770 28
27817 34771 34772 28
27818 34771 34773 28
27819 34771 34774 28
27820 34771 34775 28
27821 34776 34777 28
27822 34776 34778 28
27823 34776 34779 28
27824 34776 34780 28
27825 34781 34782 28
27826 34781 34783 28
27827 34781 34784 28
27828 34781 34785 28
27829 34786 34787 28
27830 34786 34788 28
27831 34786 34789 28
27832 34786 34790 28
27833 34791 34792 28
27834 34791 34793 28
27835 34791 34794 28
27836 34791 34795 28
27837 34796 34797 28
27838 34796 34798 28
27839 34796 34799 28
27840 34796 34800 28
27841 34801 34802 28
27842 34801 34803 28
27843 34801 34804 28
27844 34801 34805 28
27845 34806 34807 28
27846 34806 34808 28
27847 34806 34809 28
27848 34806 34810 28
27849 34811 34812 28
27850 34811 34813 28
27851 34811 34814 28
27852 34811 34815 28
27853 34816 34817 28
27854 34816 34818 28
27855 34816 34819 28
27856 34816 34820 28
27857 34821 34822 28
27858 34821 34823 28
27859 34821 34824 28
27860 34821 34825 28
27861 34826 34827 28
27862 34826 34828 28
27863 34826 34829 28
27864 34826 34830 28
27865 34831 34832 28
27866 34831 34833 28
27867 34831 34834 28
27868 34831 34835 28
27869 34836 34837 28
27870 34836 34838 28
27871 34836 34839 28
27872 34836 34840 28
27873 34841 34842 28
27874 34841 34843 28
27875 34841 34844 28
27876 34841 34845 28
27877 34846 34847 28
27878 34846 34848 28
27879 34846 34849 28
27880 34846 34850 28
27881 34851 34852 28
27882 34851 34853 28
27883 34851 34854 28
27884 34851 34855 28
27885 34856 34857 28
27886 34856 34858 28
27887 34856 34859 28
27888 34856 34860 28
27889 34861 34862 28
27890 34861 34863 28
27891 34861 34864 28
27892 34861 34865 28
27893 34866 34867 28
27894 34866 34868 28
27895 34866 34869 28
27896 34866 34870 28
27897 34871 34872 28
27898 34871 34873 28
27899 34871 34874 28
27900 34871 34875 28
27901 34876 34877 28
27902 34876 34878 28
27903 34876 34879 28
27904 34876 34880 28
27905 34881 34882 28
27906 34881 34883 28
27907 34881 34884 28
27908 34881 34885 28
27909 34886 34887 28
27910 34886 34888 28
27911 34886 34889 28
27912 34886 34890 28
27913 34891 34892 28
27914 34891 34893 28
27915 34891 34894 28
27916 34891 34895 28
27917 34896 34897 28
27918 34896 34898 28
27919 34896 34899 28
27920 34896 34900 28
27921 34901 34902 28
27922 34901 34903 28
27923 34901 34904 28
27924 34901 34905 28
27925 34906 34907 28
27926 34906 34908 28
27927 34906 34909 28
27928 34906 34910 28
27929 34911 34912 28
27930 34911 34913 28
27931 34911 34914 28
27932 34911 34915 28
27933 34916 34917 28
27934 34916 34918 28
27935 34916 34919 28
27936 34916 34920 28
27937 34921 34922 28
27938 34921 34923 28
27939 34921 34924 28
27940 34921 34925 28
27941 34926 34927 28
27942 34926 34928 28
27943 34926 34929 28
27944 34926 34930 28
27945 34931 34932 28
27946 34931 34933 28
27947 34931 34934 28
27948 34931 34935 28
27949 34936 34937 28
27950 34936 34938 28
27951 34936 34939 28
27952 34936 34940 28
27953 34941 34942 28
27954 34941 34943 28
27955 34941 34944 28
27956 34941 34945 28
27957 34946 34947 28
27958 34946 34948 28
27959 34946 34949 28
27960 34946 34950 28
27961 34951 34952 28
27962 34951 34953 28
27963 34951 34954 28
27964 34951 34955 28
27965 34956 34957 28
27966 34956 34958 28
27967 34956 34959 28
27968 34956 34960 28
27969 34961 34962 28
27970 34961 34963 28
27971 34961 34964 28
27972 34961 34965 28
27973 34966 34967 28
27974 34966 34968 28
27975 34966 34969 28
27976 34966 34970 28
27977 34971 34972 28
27978 34971 34973 28
27979 34971 34974 28
27980 34971 34975 28
27981 34976 34977 28
27982 34976 34978 28
27983 34976 34979 28
27984 34976 34980 28
27985 34981 34982 28
27986 34981 34983 28
27987 34981 34984 28
27988 34981 34985 28
27989 34986 34987 28
27990 34986 34988 28
27991 34986 34989 28
27992 34986 34990 28
27993 34991 34992 28
27994 34991 34993 28
27995 34991 34994 28
27996 34991 34995 28
27997 34996 34997 28
27998 34996 34998 28
27999 34996 34999 28
28000 34996 35000 28
28001 35001 35002 28
28002 35001 35003 28
28003 35001 35004 28
28004 35001 35005 28
28005 35006 35007 28
28006 35006 35008 28
28007 35006 35009 28
28008 35006 35010 28
28009 35011 35012 28
28010 35011 35013 28
28011 35011 35014 28
28012 35011 35015 28
28013 35016 35017 28
28014 35016 35018 28
28015 35016 35019 28
28016 35016 35020 28
28017 35021 35022 28
28018 35021 35023 28
28019 35021 35024 28
28020 35021 35025 28
28021 35026 35027 28
28022 35026 35028 28
28023 35026 35029 28
28024 35026 35030 28
28025 35031 35032 28
28026 35031 35033 28
28027 35031 35034 28
28028 35031 35035 28
28029 35036 35037 28
28030 35036 35038 28
28031 35036 35039 28
28032 35036 35040 28
28033 35041 35042 28
28034 35041 35043 28
28035 35041 35044 28
28036 35041 35045 28
28037 35046 35047 28
28038 35046 35048 28
28039 35046 35049 28
28040 35046 35050 28
28041 35051 35052 28
28042 35051 35053 28
28043 35051 35054 28
28044 35051 35055 28
28045 35056 35057 28
28046 35056 35058 28
28047 35056 35059 28
28048 35056 35060 28
28049 35061 35062 28
28050 35061 35063 28
28051 35061 35064 28
28052 35061 35065 28
28053 35066 35067 28
28054 35066 35068 28
28055 35066 35069 28
28056 35066 35070 28
28057 35071 35072 28
28058 35071 35073 28
28059 35071 35074 28
28060 35071 35075 28
28061 35076 35077 28
28062 35076 35078 28
28063 35076 35079 28
28064 35076 35080 28
28065 35081 35082 28
28066 35081 35083 28
28067 35081 35084 28
28068 35081 35085 28
28069 35086 35087 28
28070 35086 35088 28
28071 35086 35089 28
28072 35086 35090 28
28073 35091 35092 28
28074 35091 35093 28
28075 35091 35094 28
28076 35091 35095 28
28077 35096 35097 28
28078 35096 35098 28
28079 35096 35099 28
28080 35096 35100 28
28081 35101 35102 28
28082 35101 35103 28
28083 35101 35104 28
28084 35101 35105 28
28085 35106 35107 28
28086 35106 35108 28
28087 35106 35109 28
28088 35106 35110 28
28089 35111 35112 28
28090 35111 35113 28
28091 35111 35114 28
28092 35111 35115 28
28093 35116 35117 28
28094 35116 35118 28
28095 35116 35119 28
28096 35116 35120 28
28097 35121 35122 28
28098 35121 35123 28
28099 35121 35124 28
28100 35121 35125 28
28101 35126 35127 28
28102 35126 35128 28
28103 35126 35129 28
28104 35126 35130 28
28105 35131 35132 28
28106 35131 35133 28
28107 35131 35134 28
28108 35131 35135 28
28109 35136 35137 28
28110 35136 35138 28
28111 35136 35139 28
28112 35136 35140 28
28113 35141 35142 28
28114 35141 35143 28
28115 35141 35144 28
28116 35141 35145 28
28117 35146 35147 28
28118 35146 35148 28
28119 35146 35149 28
28120 35146 35150 28
28121 35151 35152 28
28122 35151 35153 28
28123 35151 35154 28
28124 35151 35155 28
28125 35156 35157 28
28126 35156 35158 28
28127 35156 35159 28
28128 35156 35160 28
28129 35161 35162 28
28130 35161 35163 28
28131 35161 35164 28
28132 35161 35165 28
28133 35166 35167 28
28134 35166 35168 28
28135 35166 35169 28
28136 35166 35170 28
28137 35171 35172 28
28138 35171 35173 28
28139 35171 35174 28
28140 35171 35175 28
28141 35176 35177 28
28142 35176 35178 28
28143 35176 35179 28
28144 35176 35180 28
28145 35181 35182 28
28146 35181 35183 28
28147 35181 35184 28
28148 35181 35185 28
28149 35186 35187 28
28150 35186 35188 28
28151 35186 35189 28
28152 35186 35190 28
28153 35191 35192 28
28154 35191 35193 28
28155 35191 35194 28
28156 35191 35195 28
28157 35196 35197 28
28158 35196 35198 28
28159 35196 35199 28
28160 35196 35200 28
28161 35201 35202 28
28162 35201 35203 28
28163 35201 35204 28
28164 35201 35205 28
28165 35206 35207 28
28166 35206 35208 28
28167 35206 35209 28
28168 35206 35210 28
28169 35211 35212 28
28170 35211 35213 28
28171 35211 35214 28
28172 35211 35215 28
28173 35216 35217 28
28174 35216 35218 28
28175 35216 35219 28
28176 35216 35220 28
28177 35221 35222 28
28178 35221 35223 28
28179 35221 35224 28
28180 35221 35225 28
28181 35226 35227 28
28182 35226 35228 28
28183 35226 35229 28
28184 35226 35230 28
28185 35231 35232 28
28186 35231 35233 28
28187 35231 35234 28
28188 35231 35235 28
28189 35236 35237 28
28190 35236 35238 28
28191 35236 35239 28
28192 35236 35240 28
28193 35241 35242 28
28194 35241 35243 28
28195 35241 35244 28
28196 35241 35245 28
28197 35246 35247 28
28198 35246 35248 28
28199 35246 35249 28
28200 35246 35250 28
28201 35251 35252 28
28202 35251 35253 28
28203 35251 35254 28
28204 35251 35255 28
28205 35256 35257 28
28206 35256 35258 28
28207 35256 35259 28
28208 35256 35260 28
28209 35261 35262 28
28210 35261 35263 28
28211 35261 35264 28
28212 35261 35265 28
28213 35266 35267 28
28214 35266 35268 28
28215 35266 35269 28
28216 35266 35270 28
28217 35271 35272 28
28218 35271 35273 28
28219 35271 35274 28
28220 35271 35275 28
28221 35276 35277 28
28222 35276 35278 28
28223 35276 35279 28
28224 35276 35280 28
28225 35281 35282 28
28226 35281 35283 28
28227 35281 35284 28
28228 35281 35285 28
28229 35286 35287 28
28230 35286 35288 28
28231 35286 35289 28
28232 35286 35290 28
28233 35291 35292 28
28234 35291 35293 28
28235 35291 35294 28
28236 35291 35295 28
28237 35296 35297 28
28238 35296 35298 28
28239 35296 35299 28
28240 35296 35300 28
28241 35301 35302 28
28242 35301 35303 28
28243 35301 35304 28
28244 35301 35305 28
28245 35306 35307 28
28246 35306 35308 28
28247 35306 35309 28
28248 35306 35310 28
28249 35311 35312 28
28250 35311 35313 28
28251 35311 35314 28
28252 35311 35315 28
28253 35316 35317 28
28254 35316 35318 28
28255 35316 35319 28
28256 35316 35320 28
28257 35321 35322 28
28258 35321 35323 28
28259 35321 35324 28
28260 35321 35325 28
28261 35326 35327 28
28262 35326 35328 28
28263 35326 35329 28
28264 35326 35330 28
28265 35331 35332 28
28266 35331 35333 28
28267 35331 35334 28
28268 35331 35335 28
28269 35336 35337 28
28270 35336 35338 28
28271 35336 35339 28
28272 35336 35340 28
28273 35341 35342 28
28274 35341 35343 28
28275 35341 35344 28
28276 35341 35345 28
28277 35346 35347 28
28278 35346 35348 28
28279 35346 35349 28
28280 35346 35350 28
28281 35351 35352 28
28282 35351 35353 28
28283 35351 35354 28
28284 35351 35355 28
28285 35356 35357 28
28286 35356 35358 28
28287 35356 35359 28
28288 35356 35360 28
28289 35361 35362 28
28290 35361 35363 28
28291 35361 35364 28
28292 35361 35365 28
28293 35366 35367 28
28294 35366 35368 28
28295 35366 35369 28
28296 35366 35370 28
28297 35371 35372 28
28298 35371 35373 28
28299 35371 35374 28
28300 35371 35375 28
28301 35376 35377 28
28302 35376 35378 28
28303 35376 35379 28
28304 35376 35380 28
28305 35381 35382 28
28306 35381 35383 28
28307 35381 35384 28
28308 35381 35385 28
28309 35386 35387 28
28310 35386 35388 28
28311 35386 35389 28
28312 35386 35390 28
28313 35391 35392 28
28314 35391 35393 28
28315 35391 35394 28
28316 35391 35395 28
28317 35396 35397 28
28318 35396 35398 28
28319 35396 35399 28
28320 35396 35400 28
28321 35401 35402 28
28322 35401 35403 28
28323 35401 35404 28
28324 35401 35405 28
28325 35406 35407 28
28326 35406 35408 28
28327 35406 35409 28
28328 35406 35410 28
28329 35411 35412 28
28330 35411 35413 28
28331 35411 35414 28
28332 35411 35415 28
28333 35416 35417 28
28334 35416 35418 28
28335 35416 35419 28
28336 35416 35420 28
28337 35421 35422 28
28338 35421 35423 28
28339 35421 35424 28
28340 35421 35425 28
28341 35426 35427 28
28342 35426 35428 28
28343 35426 35429 28
28344 35426 35430 28
28345 35431 35432 28
28346 35431 35433 28
28347 35431 35434 28
28348 35431 35435 28
28349 35436 35437 28
28350 35436 35438 28
28351 35436 35439 28
28352 35436 35440 28
28353 35441 35442 28
28354 35441 35443 28
28355 35441 35444 28
28356 35441 35445 28
28357 35446 35447 28
28358 35446 35448 28
28359 35446 35449 28
28360 35446 35450 28
28361 35451 35452 28
28362 35451 35453 28
28363 35451 35454 28
28364 35451 35455 28
28365 35456 35457 28
28366 35456 35458 28
28367 35456 35459 28
28368 35456 35460 28
28369 35461 35462 28
28370 35461 35463 28
28371 35461 35464 28
28372 35461 35465 28
28373 35466 35467 28
28374 35466 35468 28
28375 35466 35469 28
28376 35466 35470 28
28377 35471 35472 28
28378 35471 35473 28
28379 35471 35474 28
28380 35471 35475 28
28381 35476 35477 28
28382 35476 35478 28
28383 35476 35479 28
28384 35476 35480 28
28385 35481 35482 28
28386 35481 35483 28
28387 35481 35484 28
28388 35481 35485 28
28389 35486 35487 28
28390 35486 35488 28
28391 35486 35489 28
28392 35486 35490 28
28393 35491 35492 28
28394 35491 35493 28
28395 35491 35494 28
28396 35491 35495 28
28397 35496 35497 28
28398 35496 35498 28
28399 35496 35499 28
28400 35496 35500 28
28401 35501 35502 28
28402 35501 35503 28
28403 35501 35504 28
28404 35501 35505 28
28405 35506 35507 28
28406 35506 35508 28
28407 35506 35509 28
28408 35506 35510 28
28409 35511 35512 28
28410 35511 35513 28
28411 35511 35514 28
28412 35511 35515 28
28413 35516 35517 28
28414 35516 35518 28
28415 35516 35519 28
28416 35516 35520 28
28417 35521 35522 28
28418 35521 35523 28
28419 35521 35524 28
28420 35521 35525 28
28421 35526 35527 28
28422 35526 35528 28
28423 35526 35529 28
28424 35526 35530 28
28425 35531 35532 28
28426 35531 35533 28
28427 35531 35534 28
28428 35531 35535 28
28429 35536 35537 28
28430 35536 35538 28
28431 35536 35539 28
28432 35536 35540 28
28433 35541 35542 28
28434 35541 35543 28
28435 35541 35544 28
28436 35541 35545 28
28437 35546 35547 28
28438 35546 35548 28
28439 35546 35549 28
28440 35546 35550 28
28441 35551 35552 28
28442 35551 35553 28
28443 35551 35554 28
28444 35551 35555 28
28445 35556 35557 28
28446 35556 35558 28
28447 35556 35559 28
28448 35556 35560 28
28449 35561 35562 28
28450 35561 35563 28
28451 35561 35564 28
28452 35561 35565 28
28453 35566 35567 28
28454 35566 35568 28
28455 35566 35569 28
28456 35566 35570 28
28457 35571 35572 28
28458 35571 35573 28
28459 35571 35574 28
28460 35571 35575 28
28461 35576 35577 28
28462 35576 35578 28
28463 35576 35579 28
28464 35576 35580 28
28465 35581 35582 28
28466 35581 35583 28
28467 35581 35584 28
28468 35581 35585 28
28469 35586 35587 28
28470 35586 35588 28
28471 35586 35589 28
28472 35586 35590 28
28473 35591 35592 28
28474 35591 35593 28
28475 35591 35594 28
28476 35591 35595 28
28477 35596 35597 28
28478 35596 35598 28
28479 35596 35599 28
28480 35596 35600 28
28481 35601 35602 28
28482 35601 35603 28
28483 35601 35604 28
28484 35601 35605 28
28485 35606 35607 28
28486 35606 35608 28
28487 35606 35609 28
28488 35606 35610 28
28489 35611 35612 28
28490 35611 35613 28
28491 35611 35614 28
28492 35611 35615 28
28493 35616 35617 28
28494 35616 35618 28
28495 35616 35619 28
28496 35616 35620 28
28497 35621 35622 28
28498 35621 35623 28
28499 35621 35624 28
28500 35621 35625 28
28501 35626 35627 28
28502 35626 35628 28
28503 35626 35629 28
28504 35626 35630 28
28505 35631 35632 28
28506 35631 35633 28
28507 35631 35634 28
28508 35631 35635 28
28509 35636 35637 28
28510 35636 35638 28
28511 35636 35639 28
28512 35636 35640 28
28513 35641 35642 28
28514 35641 35643 28
28515 35641 35644 28
28516 35641 35645 28
28517 35646 35647 28
28518 35646 35648 28
28519 35646 35649 28
28520 35646 35650 28
28521 35651 35652 28
28522 35651 35653 28
28523 35651 35654 28
28524 35651 35655 28
28525 35656 35657 28
28526 35656 35658 28
28527 35656 35659 28
28528 35656 35660 28
28529 35661 35662 28
28530 35661 35663 28
28531 35661 35664 28
28532 35661 35665 28
28533 35666 35667 28
28534 35666 35668 28
28535 35666 35669 28
28536 35666 35670 28
28537 35671 35672 28
28538 35671 35673 28
28539 35671 35674 28
28540 35671 35675 28
28541 35676 35677 28
28542 35676 35678 28
28543 35676 35679 28
28544 35676 35680 28
28545 35681 35682 28
28546 35681 35683 28
28547 35681 35684 28
28548 35681 35685 28
28549 35686 35687 28
28550 35686 35688 28
28551 35686 35689 28
28552 35686 35690 28
28553 35691 35692 28
28554 35691 35693 28
28555 35691 35694 28
28556 35691 35695 28
28557 35696 35697 28
28558 35696 35698 28
28559 35696 35699 28
28560 35696 35700 28
28561 35701 35702 28
28562 35701 35703 28
28563 35701 35704 28
28564 35701 35705 28
28565 35706 35707 28
28566 35706 35708 28
28567 35706 35709 28
28568 35706 35710 28
28569 35711 35712 28
28570 35711 35713 28
28571 35711 35714 28
28572 35711 35715 28
28573 35716 35717 28
28574 35716 35718 28
28575 35716 35719 28
28576 35716 35720 28
28577 35721 35722 28
28578 35721 35723 28
28579 35721 35724 28
28580 35721 35725 28
28581 35726 35727 28
28582 35726 35728 28
28583 35726 35729 28
28584 35726 35730 28
28585 35731 35732 28
28586 35731 35733 28
28587 35731 35734 28
28588 35731 35735 28
28589 35736 35737 28
28590 35736 35738 28
28591 35736 35739 28
28592 35736 35740 28
28593 35741 35742 28
28594 35741 35743 28
28595 35741 35744 28
28596 35741 35745 28
28597 35746 35747 28
28598 35746 35748 28
28599 35746 35749 28
28600 35746 35750 28
28601 35751 35752 28
28602 35751 35753 28
28603 35751 35754 28
28604 35751 35755 28
28605 35756 35757 28
28606 35756 35758 28
28607 35756 35759 28
28608 35756 35760 28
28609 35761 35762 28
28610 35761 35763 28
28611 35761 35764 28
28612 35761 35765 28
28613 35766 35767 28
28614 35766 35768 28
28615 35766 35769 28
28616 35766 35770 28
28617 35771 35772 28
28618 35771 35773 28
28619 35771 35774 28
28620 35771 35775 28
28621 35776 35777 28
28622 35776 35778 28
28623 35776 35779 28
28624 35776 35780 28
28625 35781 35782 28
28626 35781 35783 28
28627 35781 35784 28
28628 35781 35785 28
28629 35786 35787 28
28630 35786 35788 28
28631 35786 35789 28
28632 35786 35790 28
28633 35791 35792 28
28634 35791 35793 28
28635 35791 35794 28
28636 35791 35795 28
28637 35796 35797 28
28638 35796 35798 28
28639 35796 35799 28
28640 35796 35800 28
28641 35801 35802 28
28642 35801 35803 28
28643 35801 35804 28
28644 35801 35805 28
28645 35806 35807 28
28646 35806 35808 28
28647 35806 35809 28
28648 35806 35810 28
28649 35811 35812 28
28650 35811 35813 28
28651 35811 35814 28
28652 35811 35815 28
28653 35816 35817 28
28654 35816 35818 28
28655 35816 35819 28
28656 35816 35820 28
28657 35821 35822 28
28658 35821 35823 28
28659 35821 35824 28
28660 35821 35825 28
28661 35826 35827 28
28662 35826 35828 28
28663 35826 35829 28
28664 35826 35830 28
28665 35831 35832 28
28666 35831 35833 28
28667 35831 35834 28
28668 35831 35835 28
28669 35836 35837 28
28670 35836 35838 28
28671 35836 35839 28
28672 35836 35840 28
28673 35841 35842 28
28674 35841 35843 28
28675 35841 35844 28
28676 35841 35845 28
28677 35846 35847 28
28678 35846 35848 28
28679 35846 35849 28
28680 35846 35850 28
28681 35851 35852 28
28682 35851 35853 28
28683 35851 35854 28
28684 35851 35855 28
28685 35856 35857 28
28686 35856 35858 28
28687 35856 35859 28
28688 35856 35860 28
28689 35861 35862 28
28690 35861 35863 28
28691 35861 35864 28
28692 35861 35865 28
28693 35866 35867 28
28694 35866 35868 28
28695 35866 35869 28
28696 35866 35870 28
28697 35871 35872 28
28698 35871 35873 28
28699 35871 35874 28
28700 35871 35875 28
28701 35876 35877 28
28702 35876 35878 28
28703 35876 35879 28
28704 35876 35880 28
28705 35881 35882 28
28706 35881 35883 28
28707 35881 35884 28
28708 35881 35885 28
28709 35886 35887 28
28710 35886 35888 28
28711 35886 35889 28
28712 35886 35890 28
28713 35891 35892 28
28714 35891 35893 28
28715 35891 35894 28
28716 35891 35895 28
28717 35896 35897 28
28718 35896 35898 28
28719 35896 35899 28
28720 35896 35900 28
28721 35901 35902 28
28722 35901 35903 28
28723 35901 35904 28
28724 35901 35905 28
28725 35906 35907 28
28726 35906 35908 28
28727 35906 35909 28
28728 35906 35910 28
28729 35911 35912 28
28730 35911 35913 28
28731 35911 35914 28
28732 35911 35915 28
28733 35916 35917 28
28734 35916 35918 28
28735 35916 35919 28
28736 35916 35920 28
28737 35921 35922 28
28738 35921 35923 28
28739 35921 35924 28
28740 35921 35925 28
28741 35926 35927 28
28742 35926 35928 28
28743 35926 35929 28
28744 35926 35930 28
28745 35931 35932 28
28746 35931 35933 28
28747 35931 35934 28
28748 35931 35935 28
28749 35936 35937 28
28750 35936 35938 28
28751 35936 35939 28
28752 35936 35940 28
28753 35941 35942 28
28754 35941 35943 28
28755 35941 35944 28
28756 35941 35945 28
28757 35946 35947 28
28758 35946 35948 28
28759 35946 35949 28
28760 35946 35950 28
28761 35951 35952 28
28762 35951 35953 28
28763 35951 35954 28
28764 35951 35955 28
28765 35956 35957 28
28766 35956 35958 28
28767 35956 35959 28
28768 35956 35960 28
28769 35961 35962 28
28770 35961 35963 28
28771 35961 35964 28
28772 35961 35965 28
28773 35966 35967 28
28774 35966 35968 28
28775 35966 35969 28
28776 35966 35970 28
28777 35971 35972 28
28778 35971 35973 28
28779 35971 35974 28
28780 35971 35975 28
28781 35976 35977 28
28782 35976 35978 28
28783 35976 35979 28
28784 35976 35980 28
28785 35981 35982 28
28786 35981 35983 28
28787 35981 35984 28
28788 35981 35985 28
28789 35986 35987 28
28790 35986 35988 28
28791 35986 35989 28
28792 35986 35990 28
28793 35991 35992 28
28794 35991 35993 28
28795 35991 35994 28
28796 35991 35995 28
28797 35996 35997 28
28798 35996 35998 28
28799 35996 35999 28
28800 35996 36000 28
28801 36001 36002 28
28802 36001 36003 28
28803 36001 36004 28
28804 36001 36005 28
28805 36006 36007 28
28806 36006 36008 28
28807 36006 36009 28
28808 36006 36010 28
28809 36011 36012 28
28810 36011 36013 28
28811 36011 36014 28
28812 36011 36015 28
28813 36016 36017 28
28814 36016 36018 28
28815 36016 36019 28
28816 36016 36020 28
28817 36021 36022 28
28818 36021 36023 28
28819 36021 36024 28
28820 36021 36025 28
28821 36026 36027 28
28822 36026 36028 28
28823 36026 36029 28
28824 36026 36030 28
28825 36031 36032 28
28826 36031 36033 28
28827 36031 36034 28
28828 36031 36035 28
28829 36036 36037 28
28830 36036 36038 28
28831 36036 36039 28
28832 36036 36040 28
28833 36041 36042 28
28834 36041 36043 28
28835 36041 36044 28
28836 36041 36045 28
28837 36046 36047 28
28838 36046 36048 28
28839 36046 36049 28
28840 36046 36050 28
28841 36051 36052 28
28842 36051 36053 28
28843 36051 36054 28
28844 36051 36055 28
28845 36056 36057 28
28846 36056 36058 28
28847 36056 36059 28
28848 36056 36060 28
28849 36061 36062 28
28850 36061 36063 28
28851 36061 36064 28
28852 36061 36065 28
28853 36066 36067 28
28854 36066 36068 28
28855 36066 36069 28
28856 36066 36070 28
28857 36071 36072 28
28858 36071 36073 28
28859 36071 36074 28
28860 36071 36075 28
28861 36076 36077 28
28862 36076 36078 28
28863 36076 36079 28
28864 36076 36080 28
28865 36081 36082 28
28866 36081 36083 28
28867 36081 36084 28
28868 36081 36085 28
28869 36086 36087 28
28870 36086 36088 28
28871 36086 36089 28
28872 36086 36090 28
28873 36091 36092 28
28874 36091 36093 28
28875 36091 36094 28
28876 36091 36095 28
28877 36096 36097 28
28878 36096 36098 28
28879 36096 36099 28
28880 36096 36100 28
28881 36101 36102 28
28882 36101 36103 28
28883 36101 36104 28
28884 36101 36105 28
28885 36106 36107 28
28886 36106 36108 28
28887 36106 36109 28
28888 36106 36110 28
28889 36111 36112 28
28890 36111 36113 28
28891 36111 36114 28
28892 36111 36115 28
28893 36116 36117 28
28894 36116 36118 28
28895 36116 36119 28
28896 36116 36120 28
28897 36121 36122 28
28898 36121 36123 28
28899 36121 36124 28
28900 36121 36125 28
28901 36126 36127 28
28902 36126 36128 28
28903 36126 36129 28
28904 36126 36130 28
28905 36131 36132 28
28906 36131 36133 28
28907 36131 36134 28
28908 36131 36135 28
28909 36136 36137 28
28910 36136 36138 28
28911 36136 36139 28
28912 36136 36140 28
28913 36141 36142 28
28914 36141 36143 28
28915 36141 36144 28
28916 36141 36145 28
28917 36146 36147 28
28918 36146 36148 28
28919 36146 36149 28
28920 36146 36150 28
28921 36151 36152 28
28922 36151 36153 28
28923 36151 36154 28
28924 36151 36155 28
28925 36156 36157 28
28926 36156 36158 28
28927 36156 36159 28
28928 36156 36160 28
28929 36161 36162 28
28930 36161 36163 28
28931 36161 36164 28
28932 36161 36165 28
28933 36166 36167 28
28934 36166 36168 28
28935 36166 36169 28
28936 36166 36170 28
28937 36171 36172 28
28938 36171 36173 28
28939 36171 36174 28
28940 36171 36175 28
28941 36176 36177 28
28942 36176 36178 28
28943 36176 36179 28
28944 36176 36180 28
28945 36181 36182 28
28946 36181 36183 28
28947 36181 36184 28
28948 36181 36185 28
28949 36186 36187 28
28950 36186 36188 28
28951 36186 36189 28
28952 36186 36190 28
28953 36191 36192 28
28954 36191 36193 28
28955 36191 36194 28
28956 36191 36195 28
28957 36196 36197 28
28958 36196 36198 28
28959 36196 36199 28
28960 36196 36200 28
28961 36201 36202 28
28962 36201 36203 28
28963 36201 36204 28
28964 36201 36205 28
28965 36206 36207 28
28966 36206 36208 28
28967 36206 36209 28
28968 36206 36210 28
28969 36211 36212 28
28970 36211 36213 28
28971 36211 36214 28
28972 36211 36215 28
28973 36216 36217 28
28974 36216 36218 28
28975 36216 36219 28
28976 36216 36220 28
28977 36221 36222 28
28978 36221 36223 28
28979 36221 36224 28
28980 36221 36225 28
28981 36226 36227 28
28982 36226 36228 28
28983 36226 36229 28
28984 36226 36230 28
28985 36231 36232 28
28986 36231 36233 28
28987 36231 36234 28
28988 36231 36235 28
28989 36236 36237 28
28990 36236 36238 28
28991 36236 36239 28
28992 36236 36240 28
28993 36241 36242 28
28994 36241 36243 28
28995 36241 36244 28
28996 36241 36245 28
28997 36246 36247 28
28998 36246 36248 28
28999 36246 36249 28
29000 36246 36250 28
29001 36251 36252 28
29002 36251 36253 28
29003 36251 36254 28
29004 36251 36255 28
29005 36256 36257 28
29006 36256 36258 28
29007 36256 36259 28
29008 36256 36260 28
29009 36261 36262 28
29010 36261 36263 28
29011 36261 36264 28
29012 36261 36265 28
29013 36266 36267 28
29014 36266 36268 28
29015 36266 36269 28
29016 36266 36270 28
29017 36271 36272 28
29018 36271 36273 28
29019 36271 36274 28
29020 36271 36275 28
29021 36276 36277 28
29022 36276 36278 28
29023 36276 36279 28
29024 36276 36280 28
29025 36281 36282 28
29026 36281 36283 28
29027 36281 36284 28
29028 36281 36285 28
29029 36286 36287 28
29030 36286 36288 28
29031 36286 36289 28
29032 36286 36290 28
29033 36291 36292 28
29034 36291 36293 28
29035 36291 36294 28
29036 36291 36295 28
29037 36296 36297 28
29038 36296 36298 28
29039 36296 36299 28
29040 36296 36300 28
29041 36301 36302 28
29042 36301 36303 28
29043 36301 36304 28
29044 36301 36305 28
29045 36306 36307 28
29046 36306 36308 28
29047 36306 36309 28
29048 36306 36310 28
29049 36311 36312 28
29050 36311 36313 28
29051 36311 36314 28
29052 36311 36315 28
29053 36316 36317 28
29054 36316 36318 28
29055 36316 36319 28
29056 36316 36320 28
29057 36321 36322 28
29058 36321 36323 28
29059 36321 36324 28
29060 36321 36325 28
29061 36326 36327 28
29062 36326 36328 28
29063 36326 36329 28
29064 36326 36330 28
29065 36331 36332 28
29066 36331 36333 28
29067 36331 36334 28
29068 36331 36335 28
29069 36336 36337 28
29070 36336 36338 28
29071 36336 36339 28
29072 36336 36340 28
29073 36341 36342 28
29074 36341 36343 28
29075 36341 36344 28
29076 36341 36345 28
29077 36346 36347 28
29078 36346 36348 28
29079 36346 36349 28
29080 36346 36350 28
29081 36351 36352 28
29082 36351 36353 28
29083 36351 36354 28
29084 36351 36355 28
29085 36356 36357 28
29086 36356 36358 28
29087 36356 36359 28
29088 36356 36360 28
29089 36361 36362 28
29090 36361 36363 28
29091 36361 36364 28
29092 36361 36365 28
29093 36366 36367 28
29094 36366 36368 28
29095 36366 36369 28
29096 36366 36370 28
29097 36371 36372 28
29098 36371 36373 28
29099 36371 36374 28
29100 36371 36375 28
29101 36376 36377 28
29102 36376 36378 28
29103 36376 36379 28
29104 36376 36380 28
29105 36381 36382 28
29106 36381 36383 28
29107 36381 36384 28
29108 36381 36385 28
29109 36386 36387 28
29110 36386 36388 28
29111 36386 36389 28
29112 36386 36390 28
29113 36391 36392 28
29114 36391 36393 28
29115 36391 36394 28
29116 36391 36395 28
29117 36396 36397 28
29118 36396 36398 28
29119 36396 36399 28
29120 36396 36400 28
29121 36401 36402 28
29122 36401 36403 28
29123 36401 36404 28
29124 36401 36405 28
29125 36406 36407 28
29126 36406 36408 28
29127 36406 36409 28
29128 36406 36410 28
29129 36411 36412 28
29130 36411 36413 28
29131 36411 36414 28
29132 36411 36415 28
29133 36416 36417 28
29134 36416 36418 28
29135 36416 36419 28
29136 36416 36420 28
29137 36421 36422 28
29138 36421 36423 28
29139 36421 36424 28
29140 36421 36425 28
29141 36426 36427 28
29142 36426 36428 28
29143 36426 36429 28
29144 36426 36430 28
29145 36431 36432 28
29146 36431 36433 28
29147 36431 36434 28
29148 36431 36435 28
29149 36436 36437 28
29150 36436 36438 28
29151 36436 36439 28
29152 36436 36440 28
29153 36441 36442 28
29154 36441 36443 28
29155 36441 36444 28
29156 36441 36445 28
29157 36446 36447 28
29158 36446 36448 28
29159 36446 36449 28
29160 36446 36450 28
29161 36451 36452 28
29162 36451 36453 28
29163 36451 36454 28
29164 36451 36455 28
29165 36456 36457 28
29166 36456 36458 28
29167 36456 36459 28
29168 36456 36460 28
29169 36461 36462 28
29170 36461 36463 28
29171 36461 36464 28
29172 36461 36465 28
29173 36466 36467 28
29174 36466 36468 28
29175 36466 36469 28
29176 36466 36470 28
29177 36471 36472 28
29178 36471 36473 28
29179 36471 36474 28
29180 36471 36475 28
29181 36476 36477 28
29182 36476 36478 28
29183 36476 36479 28
29184 36476 36480 28
29185 36481 36482 28
29186 36481 36483 28
29187 36481 36484 28
29188 36481 36485 28
29189 36486 36487 28
29190 36486 36488 28
29191 36486 36489 28
29192 36486 36490 28
29193 36491 36492 28
29194 36491 36493 28
29195 36491 36494 28
29196 36491 36495 28
29197 36496 36497 28
29198 36496 36498 28
29199 36496 36499 28
29200 36496 36500 28
29201 36501 36502 28
29202 36501 36503 28
29203 36501 36504 28
29204 36501 36505 28
29205 36506 36507 28
29206 36506 36508 28
29207 36506 36509 28
29208 36506 36510 28
29209 36511 36512 28
29210 36511 36513 28
29211 36511 36514 28
29212 36511 36515 28
29213 36516 36517 28
29214 36516 36518 28
29215 36516 36519 28
29216 36516 36520 28
29217 36521 36522 28
29218 36521 36523 28
29219 36521 36524 28
29220 36521 36525 28
29221 36526 36527 28
29222 36526 36528 28
29223 36526 36529 28
29224 36526 36530 28
29225 36531 36532 28
29226 36531 36533 28
29227 36531 36534 28
29228 36531 36535 28
29229 36536 36537 28
29230 36536 36538 28
29231 36536 36539 28
29232 36536 36540 28
29233 36541 36542 28
29234 36541 36543 28
29235 36541 36544 28
29236 36541 36545 28
29237 36546 36547 28
29238 36546 36548 28
29239 36546 36549 28
29240 36546 36550 28
29241 36551 36552 28
29242 36551 36553 28
29243 36551 36554 28
29244 36551 36555 28
29245 36556 36557 28
29246 36556 36558 28
29247 36556 36559 28
29248 36556 36560 28
29249 36561 36562 28
29250 36561 36563 28
29251 36561 36564 28
29252 36561 36565 28
29253 36566 36567 28
29254 36566 36568 28
29255 36566 36569 28
29256 36566 36570 28
29257 36571 36572 28
29258 36571 36573 28
29259 36571 36574 28
29260 36571 36575 28
29261 36576 36577 28
29262 36576 36578 28
29263 36576 36579 28
29264 36576 36580 28
29265 36581 36582 28
29266 36581 36583 28
29267 36581 36584 28
29268 36581 36585 28
29269 36586 36587 28
29270 36586 36588 28
29271 36586 36589 28
29272 36586 36590 28
29273 36591 36592 28
29274 36591 36593 28
29275 36591 36594 28
29276 36591 36595 28
29277 36596 36597 28
29278 36596 36598 28
29279 36596 36599 28
29280 36596 36600 28
29281 36601 36602 28
29282 36601 36603 28
29283 36601 36604 28
29284 36601 36605 28
29285 36606 36607 28
29286 36606 36608 28
29287 36606 36609 28
29288 36606 36610 28
29289 36611 36612 28
29290 36611 36613 28
29291 36611 36614 28
29292 36611 36615 28
29293 36616 36617 28
29294 36616 36618 28
29295 36616 36619 28
29296 36616 36620 28
29297 36621 36622 28
29298 36621 36623 28
29299 36621 36624 28
29300 36621 36625 28
29301 36626 36627 28
29302 36626 36628 28
29303 36626 36629 28
29304 36626 36630 28
29305 36631 36632 28
29306 36631 36633 28
29307 36631 36634 28
29308 36631 36635 28
29309 36636 36637 28
29310 36636 36638 28
29311 36636 36639 28
29312 36636 36640 28
29313 36641 36642 28
29314 36641 36643 28
29315 36641 36644 28
29316 36641 36645 28
29317 36646 36647 28
29318 36646 36648 28
29319 36646 36649 28
29320 36646 36650 28
29321 36651 36652 28
29322 36651 36653 28
29323 36651 36654 28
29324 36651 36655 28
29325 36656 36657 28
29326 36656 36658 28
29327 36656 36659 28
29328 36656 36660 28
29329 36661 36662 28
29330 36661 36663 28
29331 36661 36664 28
29332 36661 36665 28
29333 36666 36667 28
29334 36666 36668 28
29335 36666 36669 28
29336 36666 36670 28
29337 36671 36672 28
29338 36671 36673 28
29339 36671 36674 28
29340 36671 36675 28
29341 36676 36677 28
29342 36676 36678 28
29343 36676 36679 28
29344 36676 36680 28
29345 36681 36682 28
29346 36681 36683 28
29347 36681 36684 28
29348 36681 36685 28
29349 36686 36687 28
29350 36686 36688 28
29351 36686 36689 28
29352 36686 36690 28
29353 36691 36692 28
29354 36691 36693 28
29355 36691 36694 28
29356 36691 36695 28
29357 36696 36697 28
29358 36696 36698 28
29359 36696 36699 28
29360 36696 36700 28
29361 36701 36702 28
29362 36701 36703 28
29363 36701 36704 28
29364 36701 36705 28
29365 36706 36707 28
29366 36706 36708 28
29367 36706 36709 28
29368 36706 36710 28
29369 36711 36712 28
29370 36711 36713 28
29371 36711 36714 28
29372 36711 36715 28
29373 36716 36717 28
29374 36716 36718 28
29375 36716 36719 28
29376 36716 36720 28
29377 36721 36722 28
29378 36721 36723 28
29379 36721 36724 28
29380 36721 36725 28
29381 36726 36727 28
29382 36726 36728 28
29383 36726 36729 28
29384 36726 36730 28
29385 36731 36732 28
29386 36731 36733 28
29387 36731 36734 28
29388 36731 36735 28
29389 36736 36737 28
29390 36736 36738 28
29391 36736 36739 28
29392 36736 36740 28
29393 36741 36742 28
29394 36741 36743 28
29395 36741 36744 28
29396 36741 36745 28
29397 36746 36747 28
29398 36746 36748 28
29399 36746 36749 28
29400 36746 36750 28
29401 36751 36752 28
29402 36751 36753 28
29403 36751 36754 28
29404 36751 36755 28
29405 36756 36757 28
29406 36756 36758 28
29407 36756 36759 28
29408 36756 36760 28
29409 36761 36762 28
29410 36761 36763 28
29411 36761 36764 28
29412 36761 36765 28
29413 36766 36767 28
29414 36766 36768 28
29415 36766 36769 28
29416 36766 36770 28
29417 36771 36772 28
29418 36771 36773 28
29419 36771 36774 28
29420 36771 36775 28
29421 36776 36777 28
29422 36776 36778 28
29423 36776 36779 28
29424 36776 36780 28
29425 36781 36782 28
29426 36781 36783 28
29427 36781 36784 28
29428 36781 36785 28
29429 36786 36787 28
29430 36786 36788 28
29431 36786 36789 28
29432 36786 36790 28
29433 36791 36792 28
29434 36791 36793 28
29435 36791 36794 28
29436 36791 36795 28
29437 36796 36797 28
29438 36796 36798 28
29439 36796 36799 28
29440 36796 36800 28
29441 36801 36802 28
29442 36801 36803 28
29443 36801 36804 28
29444 36801 36805 28
29445 36806 36807 28
29446 36806 36808 28
29447 36806 36809 28
29448 36806 36810 28
29449 36811 36812 28
29450 36811 36813 28
29451 36811 36814 28
29452 36811 36815 28
29453 36816 36817 28
29454 36816 36818 28
29455 36816 36819 28
29456 36816 36820 28
29457 36821 36822 28
29458 36821 36823 28
29459 36821 36824 28
29460 36821 36825 28
29461 36826 36827 28
29462 36826 36828 28
29463 36826 36829 28
29464 36826 36830 28
29465 36831 36832 28
29466 36831 36833 28
29467 36831 36834 28
29468 36831 36835 28
29469 36836 36837 28
29470 36836 36838 28
29471 36836 36839 28
29472 36836 36840 28
29473 36841 36842 28
29474 36841 36843 28
29475 36841 36844 28
29476 36841 36845 28
29477 36846 36847 28
29478 36846 36848 28
29479 36846 36849 28
29480 36846 36850 28
29481 36851 36852 28
29482 36851 36853 28
29483 36851 36854 28
29484 36851 36855 28
29485 36856 36857 28
29486 36856 36858 28
29487 36856 36859 28
29488 36856 36860 28
29489 36861 36862 28
29490 36861 36863 28
29491 36861 36864 28
29492 36861 36865 28
29493 36866 36867 28
29494 36866 36868 28
29495 36866 36869 28
29496 36866 36870 28
29497 36871 36872 28
29498 36871 36873 28
29499 36871 36874 28
29500 36871 36875 28
29501 36876 36877 28
29502 36876 36878 28
29503 36876 36879 28
29504 36876 36880 28
29505 36881 36882 28
29506 36881 36883 28
29507 36881 36884 28
29508 36881 36885 28
29509 36886 36887 28
29510 36886 36888 28
29511 36886 36889 28
29512 36886 36890 28
29513 36891 36892 28
29514 36891 36893 28
29515 36891 36894 28
29516 36891 36895 28
29517 36896 36897 28
29518 36896 36898 28
29519 36896 36899 28
29520 36896 36900 28
29521 36901 36902 28
29522 36901 36903 28
29523 36901 36904 28
29524 36901 36905 28
29525 36906 36907 28
29526 36906 36908 28
29527 36906 36909 28
29528 36906 36910 28
29529 36911 36912 28
29530 36911 36913 28
29531 36911 36914 28
29532 36911 36915 28
29533 36916 36917 28
29534 36916 36918 28
29535 36916 36919 28
29536 36916 36920 28
29537 36921 36922 28
29538 36921 36923 28
29539 36921 36924 28
29540 36921 36925 28
29541 36926 36927 28
29542 36926 36928 28
29543 36926 36929 28
29544 36926 36930 28
29545 36931 36932 28
29546 36931 36933 28
29547 36931 36934 28
29548 36931 36935 28
29549 36936 36937 28
29550 36936 36938 28
29551 36936 36939 28
29552 36936 36940 28
29553 36941 36942 28
29554 36941 36943 28
29555 36941 36944 28
29556 36941 36945 28
29557 36946 36947 28
29558 36946 36948 28
29559 36946 36949 28
29560 36946 36950 28
29561 36951 36952 28
29562 36951 36953 28
29563 36951 36954 28
29564 36951 36955 28
29565 36956 36957 28
29566 36956 36958 28
29567 36956 36959 28
29568 36956 36960 28
29569 36961 36962 28
29570 36961 36963 28
29571 36961 36964 28
29572 36961 36965 28
29573 36966 36967 28
29574 36966 36968 28
29575 36966 36969 28
29576 36966 36970 28
29577 36971 36972 28
29578 36971 36973 28
29579 36971 36974 28
29580 36971 36975 28
29581 36976 36977 28
29582 36976 36978 28
29583 36976 36979 28
29584 36976 36980 28
29585 36981 36982 28
29586 36981 36983 28
29587 36981 36984 28
29588 36981 36985 28
29589 36986 36987 28
29590 36986 36988 28
29591 36986 36989 28
29592 36986 36990 28
29593 36991 36992 28
29594 36991 36993 28
29595 36991 36994 28
29596 36991 36995 28
29597 36996 36997 28
29598 36996 36998 28
29599 36996 36999 28
29600 36996 37000 28
29601 37001 37002 28
29602 37001 37003 28
29603 37001 37004 28
29604 37001 37005 28
29605 37006 37007 28
29606 37006 37008 28
29607 37006 37009 28
29608 37006 37010 28
29609 37011 37012 28
29610 37011 37013 28
29611 37011 37014 28
29612 37011 37015 28
29613 37016 37017 28
29614 37016 37018 28
29615 37016 37019 28
29616 37016 37020 28
29617 37021 37022 28
29618 37021 37023 28
29619 37021 37024 28
29620 37021 37025 28
29621 37026 37027 28
29622 37026 37028 28
29623 37026 37029 28
29624 37026 37030 28
29625 37031 37032 28
29626 37031 37033 28
29627 37031 37034 28
29628 37031 37035 28
29629 37036 37037 28
29630 37036 37038 28
29631 37036 37039 28
29632 37036 37040 28
29633 37041 37042 28
29634 37041 37043 28
29635 37041 37044 28
29636 37041 37045 28
29637 37046 37047 28
29638 37046 37048 28
29639 37046 37049 28
29640 37046 37050 28
29641 37051 37052 28
29642 37051 37053 28
29643 37051 37054 28
29644 37051 37055 28
29645 37056 37057 28
29646 37056 37058 28
29647 37056 37059 28
29648 37056 37060 28
29649 37061 37062 28
29650 37061 37063 28
29651 37061 37064 28
29652 37061 37065 28
29653 37066 37067 28
29654 37066 37068 28
29655 37066 37069 28
29656 37066 37070 28
29657 37071 37072 28
29658 37071 37073 28
29659 37071 37074 28
29660 37071 37075 28
29661 37076 37077 28
29662 37076 37078 28
29663 37076 37079 28
29664 37076 37080 28
29665 37081 37082 28
29666 37081 37083 28
29667 37081 37084 28
29668 37081 37085 28
29669 37086 37087 28
29670 37086 37088 28
29671 37086 37089 28
29672 37086 37090 28
29673 37091 37092 28
29674 37091 37093 28
29675 37091 37094 28
29676 37091 37095 28
29677 37096 37097 28
29678 37096 37098 28
29679 37096 37099 28
29680 37096 37100 28
29681 37101 37102 28
29682 37101 37103 28
29683 37101 37104 28
29684 37101 37105 28
29685 37106 37107 28
29686 37106 37108 28
29687 37106 37109 28
29688 37106 37110 28
29689 37111 37112 28
29690 37111 37113 28
29691 37111 37114 28
29692 37111 37115 28
29693 37116 37117 28
29694 37116 37118 28
29695 37116 37119 28
29696 37116 37120 28
29697 37121 37122 28
29698 37121 37123 28
29699 37121 37124 28
29700 37121 37125 28
29701 37126 37127 28
29702 37126 37128 28
29703 37126 37129 28
29704 37126 37130 28
29705 37131 37132 28
29706 37131 37133 28
29707 37131 37134 28
29708 37131 37135 28
29709 37136 37137 28
29710 37136 37138 28
29711 37136 37139 28
29712 37136 37140 28
29713 37141 37142 28
29714 37141 37143 28
29715 37141 37144 28
29716 37141 37145 28
29717 37146 37147 28
29718 37146 37148 28
29719 37146 37149 28
29720 37146 37150 28
29721 37151 37152 28
29722 37151 37153 28
29723 37151 37154 28
29724 37151 37155 28
29725 37156 37157 28
29726 37156 37158 28
29727 37156 37159 28
29728 37156 37160 28
29729 37161 37162 28
29730 37161 37163 28
29731 37161 37164 28
29732 37161 37165 28
29733 37166 37167 28
29734 37166 37168 28
29735 37166 37169 28
29736 37166 37170 28
29737 37171 37172 28
29738 37171 37173 28
29739 37171 37174 28
29740 37171 37175 28
29741 37176 37177 28
29742 37176 37178 28
29743 37176 37179 28
29744 37176 37180 28
29745 37181 37182 28
29746 37181 37183 28
29747 37181 37184 28
29748 37181 37185 28
29749 37186 37187 28
29750 37186 37188 28
29751 37186 37189 28
29752 37186 37190 28
29753 37191 37192 28
29754 37191 37193 28
29755 37191 37194 28
29756 37191 37195 28
29757 37196 37197 28
29758 37196 37198 28
29759 37196 37199 28
29760 37196 37200 28
29761 37201 37202 28
29762 37201 37203 28
29763 37201 37204 28
29764 37201 37205 28
29765 37206 37207 28
29766 37206 37208 28
29767 37206 37209 28
29768 37206 37210 28
29769 37211 37212 28
29770 37211 37213 28
29771 37211 37214 28
29772 37211 37215 28
29773 37216 37217 28
29774 37216 37218 28
29775 37216 37219 28
29776 37216 37220 28
29777 37221 37222 28
29778 37221 37223 28
29779 37221 37224 28
29780 37221 37225 28
29781 37226 37227 28
29782 37226 37228 28
29783 37226 37229 28
29784 37226 37230 28
29785 37231 37232 28
29786 37231 37233 28
29787 37231 37234 28
29788 37231 37235 28
29789 37236 37237 28
29790 37236 37238 28
29791 37236 37239 28
29792 37236 37240 28
29793 37241 37242 28
29794 37241 37243 28
29795 37241 37244 28
29796 37241 37245 28
29797 37246 37247 28
29798 37246 37248 28
29799 37246 37249 28
29800 37246 37250 28
29801 37251 37252 28
29802 37251 37253 28
29803 37251 37254 28
29804 37251 37255 28
29805 37256 37257 28
29806 37256 37258 28
29807 37256 37259 28
29808 37256 37260 28
29809 37261 37262 28
29810 37261 37263 28
29811 37261 37264 28
29812 37261 37265 28
29813 37266 37267 28
29814 37266 37268 28
29815 37266 37269 28
29816 37266 37270 28
29817 37271 37272 28
29818 37271 37273 28
29819 37271 37274 28
29820 37271 37275 28
29821 37276 37277 28
29822 37276 37278 28
29823 37276 37279 28
29824 37276 37280 28
29825 37281 37282 28
29826 37281 37283 28
29827 37281 37284 28
29828 37281 37285 28
29829 37286 37287 28
29830 37286 37288 28
29831 37286 37289 28
29832 37286 37290 28
29833 37291 37292 28
29834 37291 37293 28
29835 37291 37294 28
29836 37291 37295 28
29837 37296 37297 28
29838 37296 37298 28
29839 37296 37299 28
29840 37296 37300 28
29841 37301 37302 28
29842 37301 37303 28
29843 37301 37304 28
29844 37301 37305 28
29845 37306 37307 28
29846 37306 37308 28
29847 37306 37309 28
29848 37306 37310 28
29849 37311 37312 28
29850 37311 37313 28
29851 37311 37314 28
29852 37311 37315 28
29853 37316 37317 28
29854 37316 37318 28
29855 37316 37319 28
29856 37316 37320 28
29857 37321 37322 28
29858 37321 37323 28
29859 37321 37324 28
29860 37321 37325 28
29861 37326 37327 28
29862 37326 37328 28
29863 37326 37329 28
29864 37326 37330 28
29865 37331 37332 28
29866 37331 37333 28
29867 37331 37334 28
29868 37331 37335 28
29869 37336 37337 28
29870 37336 37338 28
29871 37336 37339 28
29872 37336 37340 28
29873 37341 37342 28
29874 37341 37343 28
29875 37341 37344 28
29876 37341 37345 28
29877 37346 37347 28
29878 37346 37348 28
29879 37346 37349 28
29880 37346 37350 28
29881 37351 37352 28
29882 37351 37353 28
29883 37351 37354 28
29884 37351 37355 28
29885 37356 37357 28
29886 37356 37358 28
29887 37356 37359 28
29888 37356 37360 28
29889 37361 37362 28
29890 37361 37363 28
29891 37361 37364 28
29892 37361 37365 28
29893 37366 37367 28
29894 37366 37368 28
29895 37366 37369 28
29896 37366 37370 28
29897 37371 37372 28
29898 37371 37373 28
29899 37371 37374 28
29900 37371 37375 28
29901 37376 37377 28
29902 37376 37378 28
29903 37376 37379 28
29904 37376 37380 28
29905 37381 37382 28
29906 37381 37383 28
29907 37381 37384 28
29908 37381 37385 28
29909 37386 37387 28
29910 37386 37388 28
29911 37386 37389 28
29912 37386 37390 28
29913 37391 37392 28
29914 37391 37393 28
29915 37391 37394 28
29916 37391 37395 28
29917 37396 37397 28
29918 37396 37398 28
29919 37396 37399 28
29920 37396 37400 28
29921 37401 37402 28
29922 37401 37403 28
29923 37401 37404 28
29924 37401 37405 28
29925 37406 37407 28
29926 37406 37408 28
29927 37406 37409 28
29928 37406 37410 28
29929 37411 37412 28
29930 37411 37413 28
29931 37411 37414 28
29932 37411 37415 28
29933 37416 37417 28
29934 37416 37418 28
29935 37416 37419 28
29936 37416 37420 28
29937 37421 37422 28
29938 37421 37423 28
29939 37421 37424 28
29940 37421 37425 28
29941 37426 37427 28
29942 37426 37428 28
29943 37426 37429 28
29944 37426 37430 28
29945 37431 37432 28
29946 37431 37433 28
29947 37431 37434 28
29948 37431 37435 28
29949 37436 37437 28
29950 37436 37438 28
29951 37436 37439 28
29952 37436 37440 28
29953 37441 37442 28
29954 37441 37443 28
29955 37441 37444 28
29956 37441 37445 28
29957 37446 37447 28
29958 37446 37448 28
29959 37446 37449 28
29960 37446 37450 28
29961 37451 37452 28
29962 37451 37453 28
29963 37451 37454 28
29964 37451 37455 28
29965 37456 37457 28
29966 37456 37458 28
29967 37456 37459 28
29968 37456 37460 28
29969 37461 37462 28
29970 37461 37463 28
29971 37461 37464 28
29972 37461 37465 28
29973 37466 37467 28
29974 37466 37468 28
29975 37466 37469 28
29976 37466 37470 28
29977 37471 37472 28
29978 37471 37473 28
29979 37471 37474 28
29980 37471 37475 28
29981 37476 37477 28
29982 37476 37478 28
29983 37476 37479 28
29984 37476 37480 28
29985 37481 37482 28
29986 37481 37483 28
29987 37481 37484 28
29988 37481 37485 28
29989 37486 37487 28
29990 37486 37488 28
29991 37486 37489 28
29992 37486 37490 28
29993 37491 37492 28
29994 37491 37493 28
29995 37491 37494 28
29996 37491 37495 28
29997 37496 37497 28
29998 37496 37498 28
29999 37496 37499 28
30000 37496 37500 28
@<TRIPOS>CRYSIN
124.34743768176182 124.34743768176182 124.34743768176182 90 90 90 1 1
