@<TRIPOS>MOLECULE
mol
37500 30000
SMALL
USER_CHARGES


@<TRIPOS>ATOM
1 C 111.65766719641559 31.1226159331124 60.8356805851524 C 0.0 **** -0.24
2 H 111.18353328643119 31.190198193269765 59.85676037505485 H 0.0 **** 0.06
3 H 111.5450471158837 32.071136760153735 61.36034053377094 H 0.0 **** 0.06
4 H 112.71707331607465 30.899217286483605 60.71102574215129 H 0.0 **** 0.06
5 H 111.18418487607022 30.328971534358487 61.41394195229665 H 0.0 **** 0.06
6 C 42.59257727978003 83.82958041633376 2.982407767536918 C 0.0 **** -0.24
7 H 43.147055056405975 83.81719428967895 2.0443176434421826 H 0.0 **** 0.06
8 H 41.853106216432195 83.02801152879698 2.979235541348082 H 0.0 **** 0.06
9 H 42.08690830185253 84.78932965886438 3.09257333776627 H 0.0 **** 0.06
10 H 43.28277519080888 83.68454713736466 3.8139577444953545 H 0.0 **** 0.06
11 C 47.14104003916063 73.94349813477334 11.076799155786006 C 0.0 **** -0.24
12 H 46.90703904997778 74.29398345127606 10.071719710561183 H 0.0 **** 0.06
13 H 46.81754433470789 74.68804654928175 11.805283476279584 H 0.0 **** 0.06
14 H 48.21659148970005 73.79136781951189 11.167201450648548 H 0.0 **** 0.06
15 H 46.62323677513518 73.00278656243029 11.263356474509095 H 0.0 **** 0.06
16 C 86.28476955937245 70.87794321314271 69.19873273502381 C 0.0 **** -0.24
17 H 85.69298534104726 70.10096209821859 68.71494362064396 H 0.0 **** 0.06
18 H 85.96775315397252 70.98324423526216 70.23638413796152 H 0.0 **** 0.06
19 H 86.13954417778416 71.82347009721798 68.67533643948443 H 0.0 **** 0.06
20 H 87.33943557913943 70.60337087599672 69.16683003338167 H 0.0 **** 0.06
21 C 109.2423142083255 66.19038618671902 13.623328578164376 C 0.0 **** -0.24
22 H 108.88388009442605 65.16158740074005 13.65338114099967 H 0.0 **** 0.06
23 H 108.40085447063694 66.8641094324733 13.45820835098209 H 0.0 **** 0.06
24 H 109.9612201621348 66.30093804584527 12.812216637060374 H 0.0 **** 0.06
25 H 109.72256161138503 66.43504729375212 14.570705218705626 H 0.0 **** 0.06
26 C 32.34564704996944 19.038906244425142 107.3517067964593 C 0.0 **** -0.24
27 H 32.078805277728634 20.067110143371178 107.59972381417694 H 0.0 **** 0.06
28 H 32.1658325383566 18.399107647315667 108.21596755259617 H 0.0 **** 0.06
29 H 33.39894138108275 18.9935225511669 107.0778046004566 H 0.0 **** 0.06
30 H 31.736847620573144 18.699412497664426 106.51427122934257 H 0.0 **** 0.06
31 C 47.509456809483225 71.62352743231054 65.55393896815997 C 0.0 **** -0.24
32 H 48.15689050133423 71.10891561581161 66.264467970769 H 0.0 **** 0.06
33 H 48.120600413779954 72.15686735295196 64.82604190451016 H 0.0 **** 0.06
34 H 46.8758574890129 72.33205381019036 66.08685956865153 H 0.0 **** 0.06
35 H 46.884713883514166 70.89328671644648 65.03855274177931 H 0.0 **** 0.06
36 C 111.46781356903631 44.80493093253091 8.04845227226582 C 0.0 **** -0.24
37 H 110.91431268658857 45.08859704968634 8.943737953434976 H 0.0 **** 0.06
38 H 112.28733754438034 45.506073081907175 7.890704786011469 H 0.0 **** 0.06
39 H 110.79988981499898 44.82589642557062 7.186792544159317 H 0.0 **** 0.06
40 H 111.86820623951917 43.79848025721023 8.17309141170881 H 0.0 **** 0.06
41 C 81.4275734407046 69.69586349190709 69.24136921084195 C 0.0 **** -0.24
42 H 82.43974575663373 69.61430439726479 68.84744745870694 H 0.0 **** 0.06
43 H 80.82672704116092 70.31779042357095 68.57755775825999 H 0.0 **** 0.06
44 H 81.45890026571436 70.14690456921767 70.2335908349844 H 0.0 **** 0.06
45 H 80.98368380384011 68.70239932500812 69.30868260368399 H 0.0 **** 0.06
46 C 36.853124484614085 81.8339498415645 24.285499465192345 C 0.0 **** -0.24
47 H 37.817025900018194 82.03956972085692 23.819391445754803 H 0.0 **** 0.06
48 H 36.1050974620245 82.52108777796292 23.88983778239222 H 0.0 **** 0.06
49 H 36.93621108336413 81.96779946206246 25.36388344349254 H 0.0 **** 0.06
50 H 36.55634842039386 80.8083631646027 24.068455681183792 H 0.0 **** 0.06
51 C 28.641800649017334 14.134200170401016 83.45441470645545 C 0.0 **** -0.24
52 H 29.358352903492424 14.658857521107365 82.82238411849013 H 0.0 **** 0.06
53 H 28.52582775600107 13.110794460704213 83.09851424903337 H 0.0 **** 0.06
54 H 27.679337200410316 14.645842173930717 83.41276381678486 H 0.0 **** 0.06
55 H 29.00353111111251 14.124317783696767 84.48261485358424 H 0.0 **** 0.06
56 C 94.33398169901648 36.02905240728305 44.12955537366218 C 0.0 **** -0.24
57 H 94.85971947483088 36.018450043610585 45.08498175996754 H 0.0 **** 0.06
58 H 94.24269393791198 37.056569608791335 43.777478573342016 H 0.0 **** 0.06
59 H 93.34148229758947 35.59781447528873 44.257566602274196 H 0.0 **** 0.06
60 H 94.89458934241827 35.442771085030756 43.401524875185416 H 0.0 **** 0.06
61 C 109.34984891184726 7.40093470259065 69.63262323400568 C 0.0 **** -0.24
62 H 110.14910113622932 6.811325357012173 70.08189357670454 H 0.0 **** 0.06
63 H 108.73577590725026 6.75912597500929 69.00208699665572 H 0.0 **** 0.06
64 H 109.78305524664023 8.198063375735906 69.02885402962022 H 0.0 **** 0.06
65 H 108.73362509931209 7.835116921896471 70.4203631531077 H 0.0 **** 0.06
66 C 116.84678274033473 105.64366878201247 90.14450756486838 C 0.0 **** -0.24
67 H 117.19398336051262 106.02284438676475 89.18303642373832 H 0.0 **** 0.06
68 H 117.61092197654233 105.82245777536332 90.90206544739746 H 0.0 **** 0.06
69 H 116.65580161287784 104.57335056831243 90.06530988810272 H 0.0 **** 0.06
70 H 115.92828039938502 106.1578821174129 90.42657173797764 H 0.0 **** 0.06
71 C 14.824591952580647 14.988136283746915 45.805837480399134 C 0.0 **** -0.24
72 H 14.373009890533297 15.821002497784832 46.344928053422706 H 0.0 **** 0.06
73 H 15.499760451031136 14.44939543112443 46.47064791922506 H 0.0 **** 0.06
74 H 15.382614001313698 15.368461369742668 44.95038711006205 H 0.0 **** 0.06
75 H 14.042186706268069 14.313500147277974 45.45854044303323 H 0.0 **** 0.06
76 C 75.05690402517257 116.64467301446828 7.3276775093851825 C 0.0 **** -0.24
77 H 74.30006081717428 116.74123692747455 6.548382332558759 H 0.0 **** 0.06
78 H 74.5909237121484 116.28380751301279 8.244455319118941 H 0.0 **** 0.06
79 H 75.51540389248288 117.61702786105872 7.510691480581599 H 0.0 **** 0.06
80 H 75.8211368240583 115.93749581744851 7.005125536549386 H 0.0 **** 0.06
81 C 82.38261754371749 74.01056674494532 10.76447139721057 C 0.0 **** -0.24
82 H 81.72650992387423 73.68377253009646 11.572359733908058 H 0.0 **** 0.06
83 H 82.91978801241919 74.90719306338906 11.072763839824006 H 0.0 **** 0.06
84 H 81.78533647361874 74.22897867289294 9.879268777332129 H 0.0 **** 0.06
85 H 83.09627780908073 73.21921853955621 10.534843040869276 H 0.0 **** 0.06
86 C 25.915909516910062 18.622784519931812 112.72755785357232 C 0.0 **** -0.24
87 H 24.838156891141253 18.772000523552407 112.66742505285805 H 0.0 **** 0.06
88 H 26.391112240702675 19.54305676444916 113.0683929164253 H 0.0 **** 0.06
89 H 26.300378417290283 18.357319922477416 111.74243888758664 H 0.0 **** 0.06
90 H 26.133062898376906 17.818567368429527 113.43052464524399 H 0.0 **** 0.06
91 C 2.9757686393945164 12.320599780898533 52.56000294248497 C 0.0 **** -0.24
92 H 2.7499818524078137 12.31551458558772 53.62645528984211 H 0.0 **** 0.06
93 H 3.004043924910576 11.294764085928705 52.19005447322678 H 0.0 **** 0.06
94 H 3.9440282762387255 12.792816451256442 52.39596702201638 H 0.0 **** 0.06
95 H 2.2049812768471213 12.876858947015023 52.02767818781322 H 0.0 **** 0.06
96 C 19.289696892969648 20.97003756597414 81.97164681473487 C 0.0 **** -0.24
97 H 20.15873003413433 20.31497840793017 81.89822258344168 H 0.0 **** 0.06
98 H 18.581830108998126 20.723320151262982 81.1802434589489 H 0.0 **** 0.06
99 H 19.607178528731698 22.007559495088714 81.86624377491907 H 0.0 **** 0.06
100 H 18.813766515347847 20.832400959278857 82.94207327665404 H 0.0 **** 0.06
101 C 21.74522703579811 50.98321574892128 49.184056846484964 C 0.0 **** -0.24
102 H 21.481523564710358 51.72280938770791 49.93933811587959 H 0.0 **** 0.06
103 H 21.28226788624906 50.02852060762365 49.43274362790021 H 0.0 **** 0.06
104 H 22.828980253295043 50.865823031481796 49.154457818560104 H 0.0 **** 0.06
105 H 21.38936752758994 51.317576378488354 48.20972266876112 H 0.0 **** 0.06
106 C 40.00907652443931 39.37995599388043 75.00205292524308 C 0.0 **** -0.24
107 H 39.283429182018764 39.2476691259086 75.80536315095904 H 0.0 **** 0.06
108 H 40.163476803815826 38.42900226459092 74.49214833560598 H 0.0 **** 0.06
109 H 40.95312521034023 39.72701217091438 75.41969404666034 H 0.0 **** 0.06
110 H 39.63349652499326 40.117127725589455 74.29155964812719 H 0.0 **** 0.06
111 C 64.31477443501646 14.288186032825308 66.90354121937739 C 0.0 **** -0.24
112 H 63.58328557804023 13.904538489090498 66.19208724226078 H 0.0 **** 0.06
113 H 65.02520335520438 14.929605874156607 66.38191925658518 H 0.0 **** 0.06
114 H 64.84629594795359 13.455062084426856 67.36317312013145 H 0.0 **** 0.06
115 H 63.80360889993665 14.864484563953852 67.67508574865235 H 0.0 **** 0.06
116 C 102.73123139361519 50.69366906292919 34.86427700454328 C 0.0 **** -0.24
117 H 103.43247956748232 50.190918029759814 35.53022333892426 H 0.0 **** 0.06
118 H 101.99103957073444 51.233507101853775 35.45662842248851 H 0.0 **** 0.06
119 H 102.22829842440521 49.95388317137446 34.24161226087995 H 0.0 **** 0.06
120 H 103.27121408799096 51.396190254202395 34.230187307608446 H 0.0 **** 0.06
121 C 87.73437859656872 88.11707523345456 102.22705842888033 C 0.0 **** -0.24
122 H 88.8028846411978 87.9860881442936 102.39862869184384 H 0.0 **** 0.06
123 H 87.46745475555656 89.16304494116719 102.38127651280945 H 0.0 **** 0.06
124 H 87.17531858628422 87.4929034380857 102.92479308639483 H 0.0 **** 0.06
125 H 87.49151278488114 87.8266120837568 101.2048625118473 H 0.0 **** 0.06
126 C 30.02178655464857 110.37408316223167 82.69211621201782 C 0.0 **** -0.24
127 H 30.033392241467652 109.28521033505075 82.63867996049896 H 0.0 **** 0.06
128 H 30.42870679453452 110.78705921367845 81.76866460386387 H 0.0 **** 0.06
129 H 30.627848457628517 110.70346373786822 83.53581847544638 H 0.0 **** 0.06
130 H 28.99583452953624 110.71981037072118 82.82371538417291 H 0.0 **** 0.06
131 C 35.86980444732286 85.4002040901018 38.4641098207629 C 0.0 **** -0.24
132 H 34.806873603977984 85.22765414114826 38.63374378393024 H 0.0 **** 0.06
133 H 36.318676085638785 84.5045628012725 38.03417019045702 H 0.0 **** 0.06
134 H 36.35599461725547 85.63173774204779 39.41196605114948 H 0.0 **** 0.06
135 H 35.99669614018302 86.2367052716913 37.77670207042402 H 0.0 **** 0.06
136 C 38.30433765994512 109.56046181688981 71.78867459855482 C 0.0 **** -0.24
137 H 39.253802236349856 109.8789165780417 71.36032939164457 H 0.0 **** 0.06
138 H 38.049092175486095 108.56951227477111 71.41085059743591 H 0.0 **** 0.06
139 H 37.523832806052894 110.26800133694306 71.51012282573419 H 0.0 **** 0.06
140 H 38.3903355141062 109.52347230873428 72.87446106553213 H 0.0 **** 0.06
141 C 68.88140746482335 66.32001395237396 7.785147927507168 C 0.0 **** -0.24
142 H 69.66537255765957 66.50262225320154 7.050197541005062 H 0.0 **** 0.06
143 H 68.02259626639739 66.95495474037935 7.565355522932819 H 0.0 **** 0.06
144 H 69.25720697117114 66.54780591192232 8.781736901566148 H 0.0 **** 0.06
145 H 68.57991894934884 65.27290760123066 7.741157495541842 H 0.0 **** 0.06
146 C 18.578432794126797 26.743230428492666 81.05265805323117 C 0.0 **** -0.24
147 H 18.69249769041872 25.77878668767505 81.54714523794465 H 0.0 **** 0.06
148 H 19.092720127562558 27.51088944138735 81.63234711120415 H 0.0 **** 0.06
149 H 17.519943729637006 26.991391185111922 80.97949231195815 H 0.0 **** 0.06
150 H 19.010146511295957 26.691761688965585 80.0535197645599 H 0.0 **** 0.06
151 C 57.888820693110176 14.019207523869042 76.26765045951925 C 0.0 **** -0.24
152 H 56.83375803619845 14.268445915729984 76.15900845001272 H 0.0 **** 0.06
153 H 58.32962447380527 14.638300862702877 77.0501769419484 H 0.0 **** 0.06
154 H 58.40463517908154 14.203326836320215 75.32516086687508 H 0.0 **** 0.06
155 H 57.98817234887753 12.96781230148676 76.53728624833167 H 0.0 **** 0.06
156 C 116.66782027497163 114.3849300729673 101.33842761862132 C 0.0 **** -0.24
157 H 116.95601592120352 115.28733233248677 101.87672261907082 H 0.0 **** 0.06
158 H 115.59148396337713 114.23593753480017 101.42965013840472 H 0.0 **** 0.06
159 H 117.19138449632771 113.52706907001571 101.76014567975912 H 0.0 **** 0.06
160 H 116.9322150389695 114.49046165533466 100.28629757990109 H 0.0 **** 0.06
161 C 15.348238267279612 40.468292127050084 99.3392065502043 C 0.0 **** -0.24
162 H 15.08894871049273 39.42171161382657 99.18430917102708 H 0.0 **** 0.06
163 H 14.763521196445083 41.09214311715646 98.66250567924834 H 0.0 **** 0.06
164 H 16.410649819850335 40.61175151772206 99.1403390899078 H 0.0 **** 0.06
165 H 15.13125252305366 40.748443377268345 100.3701302175441 H 0.0 **** 0.06
166 C 36.277561324352945 88.51266071028516 51.57834168313157 C 0.0 **** -0.24
167 H 37.01218405477553 89.16422492753622 52.052818987626594 H 0.0 **** 0.06
168 H 35.71313815047924 87.98394514690833 52.34716515066255 H 0.0 **** 0.06
169 H 36.78887915184026 87.7917094279164 50.94191780404358 H 0.0 **** 0.06
170 H 35.59687682288728 89.11221182045472 50.9748127726807 H 0.0 **** 0.06
171 C 76.90078524262861 96.83560928216318 27.84584356738344 C 0.0 **** -0.24
172 H 76.18303905994071 97.31227684481257 28.51344268266226 H 0.0 **** 0.06
173 H 77.24547751024625 95.9014208984903 28.28942382358281 H 0.0 **** 0.06
174 H 77.75086866034641 97.50005722794239 27.69162868818526 H 0.0 **** 0.06
175 H 76.42327122093744 96.62765072183106 26.888041523151088 H 0.0 **** 0.06
176 C 25.114572072306203 38.78382473554018 85.2288908619525 C 0.0 **** -0.24
177 H 24.947442630198054 39.846166859632056 85.41001004132906 H 0.0 **** 0.06
178 H 26.16857582175507 38.61468772625479 85.00777343779731 H 0.0 **** 0.06
179 H 24.51015356001801 38.461412584727114 84.38106729854553 H 0.0 **** 0.06
180 H 24.83230550415692 38.21569451921772 86.1142888938212 H 0.0 **** 0.06
181 C 101.3978707163592 111.18013955532967 53.82334950181046 C 0.0 **** -0.24
182 H 100.82390909869798 110.61358981998026 54.55767005400312 H 0.0 **** 0.06
183 H 100.8024450116811 111.31122165221348 52.919501686097185 H 0.0 **** 0.06
184 H 102.3120778860752 110.63855951132231 53.58128460900114 H 0.0 **** 0.06
185 H 101.65182462453205 112.15596017795342 54.23635266026219 H 0.0 **** 0.06
186 C 117.27624918132545 15.96656149295174 81.9486134611237 C 0.0 **** -0.24
187 H 116.67893093683091 16.804880714349622 81.58827056884255 H 0.0 **** 0.06
188 H 118.30456153145334 16.29477695525091 82.10441950638113 H 0.0 **** 0.06
189 H 117.25889878147768 15.16470255879338 81.21139621486205 H 0.0 **** 0.06
190 H 116.86327935144749 15.60415211465613 82.88972740862522 H 0.0 **** 0.06
191 C 88.79804084076724 119.74752216495978 34.61486458982239 C 0.0 **** -0.24
192 H 89.31270840365156 120.30757756726268 33.83440104101737 H 0.0 **** 0.06
193 H 89.3782331435024 118.8584719021756 34.86532565207813 H 0.0 **** 0.06
194 H 87.81130886624874 119.45077513271997 34.259468567018104 H 0.0 **** 0.06
195 H 88.6920416012191 120.37362176715938 35.50142120990961 H 0.0 **** 0.06
196 C 63.432050752718425 57.18179370483952 107.91781145072281 C 0.0 **** -0.24
197 H 62.627356364003475 56.55859677750291 107.5268425306262 H 0.0 **** 0.06
198 H 64.32536501755644 56.57288323722605 108.06169290434758 H 0.0 **** 0.06
199 H 63.126738964428796 57.61073279399412 108.87328421947421 H 0.0 **** 0.06
200 H 63.646439068514866 57.983400307051824 107.21192720920999 H 0.0 **** 0.06
201 C 4.444920986813413 102.91366925398052 61.31902705213873 C 0.0 **** -0.24
202 H 3.900509141239924 102.02612430043214 60.99673708835531 H 0.0 **** 0.06
203 H 3.879473053981009 103.42250339651281 62.0997661795307 H 0.0 **** 0.06
204 H 4.579459222469376 103.58516526854166 60.47102959049325 H 0.0 **** 0.06
205 H 5.4201386022913525 102.61950699213426 61.70827035692532 H 0.0 **** 0.06
206 C 74.09413467505425 121.76095611798897 90.20909252619191 C 0.0 **** -0.24
207 H 74.41179872763982 122.17354902659156 91.16710913208112 H 0.0 **** 0.06
208 H 73.15269217682052 122.22052004113783 89.9099887156382 H 0.0 **** 0.06
209 H 73.95899305792287 120.68338544972195 90.30532848440961 H 0.0 **** 0.06
210 H 74.85552316705841 121.96580516968623 89.456510599256 H 0.0 **** 0.06
211 C 77.22405680233686 47.88094869556471 116.91152289066852 C 0.0 **** -0.24
212 H 76.5518442584949 48.25392425806322 117.68437130039307 H 0.0 **** 0.06
213 H 77.79248830597425 48.71128890524707 116.49349675785956 H 0.0 **** 0.06
214 H 76.64184714637048 47.40455037225314 116.12283557953415 H 0.0 **** 0.06
215 H 77.90968318410586 47.15327164814491 117.34592675762687 H 0.0 **** 0.06
216 C 53.832045716103266 59.71916414534481 60.72680479216248 C 0.0 **** -0.24
217 H 52.90789333455268 59.99099851335509 61.23650721656591 H 0.0 **** 0.06
218 H 53.91221402471842 58.63336439582068 60.67312905623618 H 0.0 **** 0.06
219 H 54.6827943170905 60.12076114381167 61.27825094180588 H 0.0 **** 0.06
220 H 53.82541994246833 60.13351115464082 59.71789455383552 H 0.0 **** 0.06
221 C 37.97791195669612 55.59331261556386 85.58209383952158 C 0.0 **** -0.24
222 H 37.22049813306663 56.35988057423165 85.74525934988168 H 0.0 **** 0.06
223 H 38.51034502307245 55.80127498414822 84.65357574307092 H 0.0 **** 0.06
224 H 37.49768013965581 54.616864463099006 85.51500015216425 H 0.0 **** 0.06
225 H 38.68194129671468 55.59541144062263 86.41378691509951 H 0.0 **** 0.06
226 C 24.42564038873803 43.28182646023464 104.14749518057573 C 0.0 **** -0.24
227 H 24.87232435905173 42.47736191944506 104.73099266119601 H 0.0 **** 0.06
228 H 25.19914889897396 43.77820980537069 103.56145995042033 H 0.0 **** 0.06
229 H 23.96000367159465 44.00200787192722 104.82025539793193 H 0.0 **** 0.06
230 H 23.670468449652248 42.86933708254179 103.47848473258318 H 0.0 **** 0.06
231 C 84.36002706248223 82.92493098777507 69.11275379670192 C 0.0 **** -0.24
232 H 84.22886333550306 82.81303149180312 68.0363794565954 H 0.0 **** 0.06
233 H 84.72275470781011 83.92951989248925 69.33107680391535 H 0.0 **** 0.06
234 H 85.08410320334818 82.19200925132455 69.46862821253995 H 0.0 **** 0.06
235 H 83.4048126388497 82.76552776083753 69.61363220489673 H 0.0 **** 0.06
236 C 11.569698654248782 83.06848311100117 90.86913864679349 C 0.0 **** -0.24
237 H 11.274176450056302 82.73529511159856 89.87548207667453 H 0.0 **** 0.06
238 H 12.544234547218963 83.55518654263861 90.81473484909213 H 0.0 **** 0.06
239 H 11.62878765550073 82.20991330523472 91.53836695597818 H 0.0 **** 0.06
240 H 10.831562449212669 83.77475256916517 91.25009738830562 H 0.0 **** 0.06
241 C 73.29315179676726 22.420208337559863 41.46142548965696 C 0.0 **** -0.24
242 H 74.01960463580983 22.69895133540131 40.69758795054577 H 0.0 **** 0.06
243 H 73.23501086322989 23.209547125630948 42.21246222087012 H 0.0 **** 0.06
244 H 73.60318681625975 21.489678634966694 41.934785580568416 H 0.0 **** 0.06
245 H 72.31513408464195 22.28621791465556 40.999767583301264 H 0.0 **** 0.06
246 C 88.31001583211457 111.69739252810632 114.11673529326248 C 0.0 **** -0.24
247 H 88.45879864550653 110.92667858442366 113.36038892698065 H 0.0 **** 0.06
248 H 88.22196766268138 111.23099072073381 115.09803749470538 H 0.0 **** 0.06
249 H 87.40019484940092 112.25383016487677 113.894350502136 H 0.0 **** 0.06
250 H 89.16199747092458 112.378224608641 114.11339351389839 H 0.0 **** 0.06
251 C 26.50173935253693 38.16128773907877 37.86964797199831 C 0.0 **** -0.24
252 H 27.254733961332562 38.94552952281023 37.94069736477021 H 0.0 **** 0.06
253 H 26.21814250964499 38.02405641863686 36.82626716260124 H 0.0 **** 0.06
254 H 25.623846590727766 38.44748745857109 38.45063442836499 H 0.0 **** 0.06
255 H 26.908730824990016 37.22969259878141 38.262056599957255 H 0.0 **** 0.06
256 C 69.15798919285191 29.152051817917652 102.28742830292836 C 0.0 **** -0.24
257 H 69.28655494203323 28.832804142242253 101.25390480717724 H 0.0 **** 0.06
258 H 69.37487355620402 30.217277415231933 102.36811744333988 H 0.0 **** 0.06
259 H 69.83941727260762 28.592332005276546 102.92787003761538 H 0.0 **** 0.06
260 H 68.13032398771364 28.965879502049802 102.60043191128736 H 0.0 **** 0.06
261 C 5.001429380769935 77.45225835619485 0.22821179643136702 C 0.0 **** -0.24
262 H 4.32654624497917 77.77820308296089 -0.5629417228086027 H 0.0 **** 0.06
263 H 5.824317313835365 78.1607177975076 0.3185652679022155 H 0.0 **** 0.06
264 H 5.3954799928541775 76.46605939864108 -0.013523099758913304 H 0.0 **** 0.06
265 H 4.457467038034451 77.40490036268952 1.1720297689925019 H 0.0 **** 0.06
266 C 91.13840350475718 37.40875327857767 116.55635494853041 C 0.0 **** -0.24
267 H 90.24572210842379 37.810395616937264 116.07629816403409 H 0.0 **** 0.06
268 H 91.1034040350915 37.62340767422709 117.62460289554713 H 0.0 **** 0.06
269 H 92.0233683593786 37.871471796250574 116.12066830369915 H 0.0 **** 0.06
270 H 91.17962483703877 36.329922335566046 116.40253430494917 H 0.0 **** 0.06
271 C 49.32615516312492 75.5849186547141 26.625084865929722 C 0.0 **** -0.24
272 H 48.84950423912983 76.07765534256123 27.472354343863174 H 0.0 **** 0.06
273 H 49.504083707884746 74.53728928318478 26.868219135408253 H 0.0 **** 0.06
274 H 50.27590045719509 76.0740288202046 26.40841170995526 H 0.0 **** 0.06
275 H 48.675675138337596 75.65172670315621 25.753265775581696 H 0.0 **** 0.06
276 C 43.30403423117633 66.88718915523802 116.09581776736601 C 0.0 **** -0.24
277 H 43.9174067286132 66.35120553250522 116.81936237862529 H 0.0 **** 0.06
278 H 42.26583845634323 66.5706180098392 116.19376850820836 H 0.0 **** 0.06
279 H 43.657445492169074 66.66922206463317 115.08804499918976 H 0.0 **** 0.06
280 H 43.37645650953107 67.95906807672722 116.28246655719099 H 0.0 **** 0.06
281 C 64.78261613384953 25.24905052512451 108.21895144111687 C 0.0 **** -0.24
282 H 65.02968160911405 25.72600379682582 109.16762439800851 H 0.0 **** 0.06
283 H 65.28204440372556 25.7768849584021 107.40661263622286 H 0.0 **** 0.06
284 H 63.70332141073481 25.281905825199146 108.06610633421673 H 0.0 **** 0.06
285 H 65.11453028652033 24.210546526729004 108.2373258631265 H 0.0 **** 0.06
286 C 91.48756626932328 68.86016404937163 77.77723990895956 C 0.0 **** -0.24
287 H 91.44410445788236 67.84378065537359 77.3869375267131 H 0.0 **** 0.06
288 H 90.48957760342307 69.17389335088225 78.0855218448024 H 0.0 **** 0.06
289 H 91.85642034034612 69.53134261013872 77.0004759532955 H 0.0 **** 0.06
290 H 92.15917161714549 68.89239987412685 78.63446226742712 H 0.0 **** 0.06
291 C 48.016748562653106 6.9391256098523115 83.72805673981648 C 0.0 **** -0.24
292 H 46.99671492761266 7.284210895940419 83.55855255713433 H 0.0 **** 0.06
293 H 48.173525721394185 5.997980448956014 83.20010324613261 H 0.0 **** 0.06
294 H 48.17482481962094 6.787773717919492 84.79643480917326 H 0.0 **** 0.06
295 H 48.718976467097264 7.68562916689072 83.35781424694133 H 0.0 **** 0.06
296 C 43.0009769762345 63.621348109026705 109.03331370905829 C 0.0 **** -0.24
297 H 42.61742208732439 63.1004006874877 109.91036361576738 H 0.0 **** 0.06
298 H 44.043451119393694 63.89236293663486 109.1992797698926 H 0.0 **** 0.06
299 H 42.41383077845121 64.52389533964438 108.86153766573528 H 0.0 **** 0.06
300 H 42.928966307373535 62.96959988913677 108.16251300909272 H 0.0 **** 0.06
301 C 0.25271960280639405 8.136329414640912 120.56144717473036 C 0.0 **** -0.24
302 H -0.651850959569316 8.449103347380579 120.03773845922959 H 0.0 **** 0.06
303 H 0.782640212780791 9.016611980177014 120.92630046253066 H 0.0 **** 0.06
304 H 0.8949793326321469 7.582202333272811 119.8767846606336 H 0.0 **** 0.06
305 H -0.017050167678263506 7.4998602089995465 121.40315333017729 H 0.0 **** 0.06
306 C 12.865864236235467 24.330677803439613 75.50902779634052 C 0.0 **** -0.24
307 H 13.451031147687559 25.043500245731423 76.08892081130651 H 0.0 **** 0.06
308 H 13.410941704804372 23.38886016613273 75.43404571672542 H 0.0 **** 0.06
309 H 12.69139906532871 24.72977789078368 74.51038266777957 H 0.0 **** 0.06
310 H 11.909527853005557 24.15784796502831 76.00327645155497 H 0.0 **** 0.06
311 C 14.23751993565826 22.980048878337755 44.12095815769973 C 0.0 **** -0.24
312 H 14.144084513450842 23.19561254223032 45.18574043849323 H 0.0 **** 0.06
313 H 13.296083567287546 23.21009671093384 43.62090340705281 H 0.0 **** 0.06
314 H 14.474229391483767 21.92523670503533 43.98357908357792 H 0.0 **** 0.06
315 H 15.034101861355175 23.59063865033562 43.69574821114392 H 0.0 **** 0.06
316 C 85.27906450629163 60.65572670825991 89.30772657580789 C 0.0 **** -0.24
317 H 85.8194420807786 61.46872695722927 88.82365555132785 H 0.0 **** 0.06
318 H 85.07202470227989 59.87234572446706 88.57899764487357 H 0.0 **** 0.06
319 H 84.33984696076766 61.03433395771311 89.71202612823097 H 0.0 **** 0.06
320 H 85.88422015643602 60.248758137671665 90.1179280073774 H 0.0 **** 0.06
321 C 9.802452235067477 37.729009860900085 109.73544875663421 C 0.0 **** -0.24
322 H 9.298961420037728 36.77285560308287 109.87763931607222 H 0.0 **** 0.06
323 H 10.50858438328586 37.64740127944642 108.90772616657654 H 0.0 **** 0.06
324 H 10.338007679903576 37.99679946296636 110.64545542827116 H 0.0 **** 0.06
325 H 9.06426769258142 38.497574539231245 109.50814279634508 H 0.0 **** 0.06
326 C 45.9523151943105 64.89093364857595 6.462692996178269 C 0.0 **** -0.24
327 H 44.91772018095892 64.57744824026085 6.599188934149456 H 0.0 **** 0.06
328 H 46.380181712964394 65.1626431240916 7.428586069583794 H 0.0 **** 0.06
329 H 45.98592233720739 65.75131257047514 5.794885570469571 H 0.0 **** 0.06
330 H 46.526138291869024 64.07113517380748 6.02839155017563 H 0.0 **** 0.06
331 C 87.23704669027111 95.84709989008329 42.51968457095066 C 0.0 **** -0.24
332 H 87.26449733651356 96.12127974078618 41.465098870633625 H 0.0 **** 0.06
333 H 87.57683723232978 96.68863804569565 43.122835474251815 H 0.0 **** 0.06
334 H 87.88979963993006 94.99020208536888 42.688554080423785 H 0.0 **** 0.06
335 H 86.2156116832478 95.58646466334108 42.800344581336816 H 0.0 **** 0.06
336 C 74.49717057577291 87.62558799655415 88.8953187471449 C 0.0 **** -0.24
337 H 74.06670382196768 88.52155273222871 89.34397759840178 H 0.0 **** 0.06
338 H 75.21769264894522 87.18429370767211 89.58510314131868 H 0.0 **** 0.06
339 H 74.99890123457573 87.89032788031471 87.96507457625839 H 0.0 **** 0.06
340 H 73.70445575811777 86.907245171961 88.68885113630225 H 0.0 **** 0.06
341 C 19.283193080025057 72.09890943073043 74.95136896166059 C 0.0 **** -0.24
342 H 18.61236970994986 71.56578504100773 74.27699549642739 H 0.0 **** 0.06
343 H 20.079681388417498 72.56980433669762 74.37421772106597 H 0.0 **** 0.06
344 H 19.71617869447499 71.39630173815024 75.66277810481387 H 0.0 **** 0.06
345 H 18.724489019609678 72.86315837014558 75.49019952410856 H 0.0 **** 0.06
346 C 20.042546542465743 105.41466713973196 103.92724952347965 C 0.0 **** -0.24
347 H 19.654426439251154 105.10889885356059 102.95539526524078 H 0.0 **** 0.06
348 H 19.56972071503617 104.82092919937023 104.70969960889153 H 0.0 **** 0.06
349 H 19.824127736014134 106.46988299942262 104.08876979332643 H 0.0 **** 0.06
350 H 21.12160585380076 105.25781170541208 103.95187850361066 H 0.0 **** 0.06
351 C 24.23588388586134 0.554525281294417 76.9407495646652 C 0.0 **** -0.24
352 H 23.63806349648405 1.0077212152054358 76.15008443523652 H 0.0 **** 0.06
353 H 25.24082553031181 0.9785568473693047 76.92399377546005 H 0.0 **** 0.06
354 H 24.292892300160247 -0.5223178049690773 76.78078970871445 H 0.0 **** 0.06
355 H 23.772346870216097 0.7548518245460798 77.90586238075903 H 0.0 **** 0.06
356 C 77.74754108824442 27.309862589890727 36.644306778965415 C 0.0 **** -0.24
357 H 78.69106392583481 26.796562974270145 36.826866986952666 H 0.0 **** 0.06
358 H 77.43096338427856 27.131674324073984 35.61685040392564 H 0.0 **** 0.06
359 H 77.87902538969215 28.38060773778205 36.80375864445392 H 0.0 **** 0.06
360 H 76.98889713314668 26.93143805804567 37.329240600468836 H 0.0 **** 0.06
361 C 99.11243254864416 49.70066326159619 105.932728576046 C 0.0 **** -0.24
362 H 98.52137376961338 50.58637801526575 105.70184771757411 H 0.0 **** 0.06
363 H 98.8370755614709 48.893824740527094 105.25430672942588 H 0.0 **** 0.06
364 H 98.92024309484509 49.392983874494035 106.96031979185707 H 0.0 **** 0.06
365 H 100.17196776991779 49.93051147008077 105.81464760119016 H 0.0 **** 0.06
366 C 30.092886033545568 115.09093195626158 121.18166630063165 C 0.0 **** -0.24
367 H 29.056393214763915 115.00109677742341 121.50827992543601 H 0.0 **** 0.06
368 H 30.752566903080464 115.0249247554286 122.04620679458112 H 0.0 **** 0.06
369 H 30.235977665575064 116.0521049123964 120.68663040902477 H 0.0 **** 0.06
370 H 30.324561211916034 114.28597290144768 120.48425203616381 H 0.0 **** 0.06
371 C 97.57533109428593 64.78587682814936 109.30920995086478 C 0.0 **** -0.24
372 H 97.84121910727359 63.763156942528475 109.04195964178018 H 0.0 **** 0.06
373 H 97.3328455709788 65.3465667690676 108.4062748976119 H 0.0 **** 0.06
374 H 98.41633622055025 65.25843843222154 109.81757998291971 H 0.0 **** 0.06
375 H 96.71053675919293 64.77388953406003 109.97341944512758 H 0.0 **** 0.06
376 C 111.23487476114161 12.610557440524548 112.9515096093472 C 0.0 **** -0.24
377 H 111.40567150229572 11.5501681761105 113.13576263993863 H 0.0 **** 0.06
378 H 110.96120506970124 12.758183226323272 111.9065805771972 H 0.0 **** 0.06
379 H 112.14557848703146 13.167547879839013 113.17090077549828 H 0.0 **** 0.06
380 H 110.42799050283168 12.965358962435744 113.5923939821476 H 0.0 **** 0.06
381 C 14.308804756957045 77.66855442756395 50.826556333394336 C 0.0 **** -0.24
382 H 15.248355667263723 78.0408538216837 51.23335395793001 H 0.0 **** 0.06
383 H 14.335722064344452 77.72795760934122 49.738007799667656 H 0.0 **** 0.06
384 H 13.484161721107569 78.27462167025152 51.20337666083233 H 0.0 **** 0.06
385 H 14.166074438175997 76.63172011525393 51.13093404403929 H 0.0 **** 0.06
386 C 65.09633368380713 55.771651263781855 59.676117847194945 C 0.0 **** -0.24
387 H 65.87528880572569 55.61239030777654 58.930864223493984 H 0.0 **** 0.06
388 H 64.8744591021661 54.83024369496972 60.176561117759235 H 0.0 **** 0.06
389 H 64.19662317001834 56.1449576917318 59.185571715224995 H 0.0 **** 0.06
390 H 65.43960869673006 56.502247255837425 60.408999096488145 H 0.0 **** 0.06
391 C 90.44468622418515 22.393569566557034 21.46755648264775 C 0.0 **** -0.24
392 H 90.35713912324027 22.88061953151316 20.495446373233733 H 0.0 **** 0.06
393 H 91.17346971977528 22.929133043730218 22.076878704627518 H 0.0 **** 0.06
394 H 90.77198640077646 21.36389921781108 21.329423926070547 H 0.0 **** 0.06
395 H 89.47557603352263 22.404515886935712 21.966881801815532 H 0.0 **** 0.06
396 C 88.68866477443294 37.21658997316092 27.37001180010742 C 0.0 **** -0.24
397 H 88.02713679781584 37.831215316801035 27.981068744766958 H 0.0 **** 0.06
398 H 88.12360428540842 36.3862835646143 26.9463066576007 H 0.0 **** 0.06
399 H 89.49737822616976 36.82792000944619 27.988211035044003 H 0.0 **** 0.06
400 H 89.1057925378501 37.821426097155666 26.564915025992377 H 0.0 **** 0.06
401 C 59.60988999070031 40.51697796059855 34.463146678749865 C 0.0 **** -0.24
402 H 60.650481944723424 40.279309421845284 34.24262418229955 H 0.0 **** 0.06
403 H 59.19586208196887 39.75553733647337 35.12408328147421 H 0.0 **** 0.06
404 H 59.03938388089978 40.543450079064115 33.53533361879519 H 0.0 **** 0.06
405 H 59.55565628249576 41.4911736169656 34.95103884390551 H 0.0 **** 0.06
406 C 13.084679314312837 76.33857745127489 45.522675938365495 C 0.0 **** -0.24
407 H 12.82117753248059 77.37461261941448 45.7340974060547 H 0.0 **** 0.06
408 H 12.680606833805655 76.05270944135731 44.550492234673726 H 0.0 **** 0.06
409 H 12.665338621664773 75.6933316842356 46.2938668013434 H 0.0 **** 0.06
410 H 14.169881806677267 76.23441171516643 45.510667187613365 H 0.0 **** 0.06
411 C 33.981984371116965 100.53894580738182 32.14264609888161 C 0.0 **** -0.24
412 H 34.53102279149144 100.11728232011097 32.98430922617342 H 0.0 **** 0.06
413 H 34.41532303654387 100.1788000933442 31.20970409544057 H 0.0 **** 0.06
414 H 34.044270451243875 101.62688750366203 32.1772072274199 H 0.0 **** 0.06
415 H 32.93740538321296 100.23315077242381 32.20106066757549 H 0.0 **** 0.06
416 C 63.691655869281725 21.822343760504054 45.59589835947668 C 0.0 **** -0.24
417 H 64.30638760588968 21.001352944204484 45.2286245803931 H 0.0 **** 0.06
418 H 62.85762440535127 21.984302144315564 44.913984832537096 H 0.0 **** 0.06
419 H 64.29428964163756 22.72872846984376 45.65498667646824 H 0.0 **** 0.06
420 H 63.30918675960533 21.575429896685478 46.58624175902969 H 0.0 **** 0.06
421 C 3.617142824250948 98.22556437905018 60.36315391018834 C 0.0 **** -0.24
422 H 3.610632286830409 97.22762489321065 60.80179332622409 H 0.0 **** 0.06
423 H 2.7703413010119107 98.32850474676133 59.68462197391944 H 0.0 **** 0.06
424 H 4.545092526440513 98.37308477499869 59.81139747227359 H 0.0 **** 0.06
425 H 3.541429741869905 98.97112594918664 61.15521303090424 H 0.0 **** 0.06
426 C 60.402476621245945 104.61218664490514 102.94489462358234 C 0.0 **** -0.24
427 H 61.10293585046863 104.98682414926029 102.19845591796172 H 0.0 **** 0.06
428 H 59.38130621676621 104.79462535083002 102.60832468690268 H 0.0 **** 0.06
429 H 60.570498471458926 105.12700133776218 103.8903926778089 H 0.0 **** 0.06
430 H 60.55499713566673 103.54224083608639 103.08035861536797 H 0.0 **** 0.06
431 C 102.03600617443536 36.948076079328416 96.0463210079817 C 0.0 **** -0.24
432 H 101.66612981278175 37.88094055407305 96.47075407346716 H 0.0 **** 0.06
433 H 102.51056754055585 36.35632870427355 96.82982770689358 H 0.0 **** 0.06
434 H 102.76441590390237 37.16767254225104 95.26536337675694 H 0.0 **** 0.06
435 H 101.20397265138615 36.387188235773806 95.62153973636461 H 0.0 **** 0.06
436 C 41.375854634138186 30.54512330337755 86.76718465691158 C 0.0 **** -0.24
437 H 41.03929009826943 29.515794659066216 86.64495960341097 H 0.0 **** 0.06
438 H 42.0802988735385 30.794496193437453 85.97289965012143 H 0.0 **** 0.06
439 H 41.86628722257382 30.653532798366797 87.73509397272693 H 0.0 **** 0.06
440 H 40.51798890512566 31.21576104846099 86.71751033795528 H 0.0 **** 0.06
441 C 70.7851215621595 100.50170087878357 29.627020600218543 C 0.0 **** -0.24
442 H 70.70688393560553 100.9031594800305 28.617195895111507 H 0.0 **** 0.06
443 H 71.21503651535676 101.25757874063774 30.285771716361864 H 0.0 **** 0.06
444 H 71.42552604134232 99.61970689485045 29.618723351170672 H 0.0 **** 0.06
445 H 69.7938287689748 100.22689501537434 29.98783700717223 H 0.0 **** 0.06
446 C 85.64360228278451 113.3419784189826 117.74392599624568 C 0.0 **** -0.24
447 H 84.86509160662797 112.87566709915527 118.34734540552856 H 0.0 **** 0.06
448 H 86.41532556170188 112.60660432790138 117.51462858900544 H 0.0 **** 0.06
449 H 86.08419947799564 114.1716649664681 118.29735667117163 H 0.0 **** 0.06
450 H 85.20921119595374 113.71414458225591 116.81557697156069 H 0.0 **** 0.06
451 C 65.95148969368654 45.07945874715523 14.45862613968825 C 0.0 **** -0.24
452 H 65.40093332690657 44.416950791324126 15.12715293208629 H 0.0 **** 0.06
453 H 65.24763415373536 45.66757757029103 13.869088355022484 H 0.0 **** 0.06
454 H 66.57752931958316 44.48598986820312 13.793353166657425 H 0.0 **** 0.06
455 H 66.57905755214614 45.74783558186704 15.048386374666109 H 0.0 **** 0.06
456 C 17.599956655271725 23.732386733414558 46.24732387279053 C 0.0 **** -0.24
457 H 17.00779205179869 22.83136752028662 46.086536427046894 H 0.0 **** 0.06
458 H 18.660231106450865 23.47856727426199 46.22601770559727 H 0.0 **** 0.06
459 H 17.349430110587036 24.164029089914266 47.216006182863225 H 0.0 **** 0.06
460 H 17.38252833937105 24.454357687529978 45.460046278632575 H 0.0 **** 0.06
461 C 12.441926993812046 19.433239594028723 28.05893481158543 C 0.0 **** -0.24
462 H 12.058855212264035 19.428961106758795 27.039218307189827 H 0.0 **** 0.06
463 H 12.399636571321622 20.44668835513806 28.45840981340612 H 0.0 **** 0.06
464 H 13.47504848459387 19.085109858278788 28.060285971595647 H 0.0 **** 0.06
465 H 11.83510363918046 18.77254901227224 28.677784938356382 H 0.0 **** 0.06
466 C 15.410972801195413 57.67697363669208 26.33497953552302 C 0.0 **** -0.24
467 H 15.73459054024255 56.875646537903975 25.670201672825613 H 0.0 **** 0.06
468 H 14.909752382586333 58.45120865787575 25.754013652225808 H 0.0 **** 0.06
469 H 16.279314212365193 58.10405892281406 26.837015889786414 H 0.0 **** 0.06
470 H 14.722481143946851 57.27600669478102 27.07874016329879 H 0.0 **** 0.06
471 C 23.448635255572157 104.367926935696 33.041014767837325 C 0.0 **** -0.24
472 H 22.790875593514528 103.56830372177859 33.382025155795205 H 0.0 **** 0.06
473 H 24.328875290636972 103.93539775775767 32.565085006932456 H 0.0 **** 0.06
474 H 23.75584287021414 104.97355595796589 33.892697813532614 H 0.0 **** 0.06
475 H 22.91751923235404 104.9929474341914 32.32294632427603 H 0.0 **** 0.06
476 C 53.47810932575828 5.864109056197407 1.7411344148801788 C 0.0 **** -0.24
477 H 52.87862980876008 6.18230761795985 0.8883635788784545 H 0.0 **** 0.06
478 H 53.87604486861545 6.740951252808429 2.2530360254137065 H 0.0 **** 0.06
479 H 54.30281745528464 5.241046798710727 1.3932190150133295 H 0.0 **** 0.06
480 H 52.855850771938776 5.292477115634995 2.4296744233553795 H 0.0 **** 0.06
481 C 54.540500825080336 25.123780302619032 0.36297978447721846 C 0.0 **** -0.24
482 H 53.721315824083014 25.21784400494552 -0.35038135952970606 H 0.0 **** 0.06
483 H 55.471117842129026 25.437625208954543 -0.11083507815486371 H 0.0 **** 0.06
484 H 54.62644955250392 24.08544907757785 0.6826689948034925 H 0.0 **** 0.06
485 H 54.34214756250572 25.755972473338247 1.2278353270339863 H 0.0 **** 0.06
486 C 94.13991292428557 102.15453780261944 120.33414527199513 C 0.0 **** -0.24
487 H 94.05039833961351 103.13923189798336 120.7929434938801 H 0.0 **** 0.06
488 H 94.94068909595913 102.16975086783322 119.59562435353679 H 0.0 **** 0.06
489 H 93.20044546422193 101.89424492748861 119.8479790841498 H 0.0 **** 0.06
490 H 94.36704808647181 101.41577803865192 121.10305474965868 H 0.0 **** 0.06
491 C 29.44661319599828 41.47274441837406 39.93330319220931 C 0.0 **** -0.24
492 H 29.111984978515636 42.47547779713983 40.19825758672533 H 0.0 **** 0.06
493 H 28.628984244327057 40.932072583368296 39.45422061146016 H 0.0 **** 0.06
494 H 29.754314476037166 40.942039005746324 40.83494329896553 H 0.0 **** 0.06
495 H 30.28891428857571 41.54044014033427 39.24565995530659 H 0.0 **** 0.06
496 C 114.60623496208814 40.63583936660436 11.638777285246949 C 0.0 **** -0.24
497 H 115.26807636732605 40.375106740770136 12.464847256992194 H 0.0 **** 0.06
498 H 114.00650756290722 39.76752769646862 11.366547603688282 H 0.0 **** 0.06
499 H 115.20140350943862 40.949993650897625 10.781719189396252 H 0.0 **** 0.06
500 H 113.94911242200095 41.45112146179878 11.94290102794783 H 0.0 **** 0.06
501 C 113.10103511471061 83.09424156537887 51.53091763072439 C 0.0 **** -0.24
502 H 114.04423125865128 83.19359732153566 52.06762198668545 H 0.0 **** 0.06
503 H 112.37314558746984 83.79253797548643 51.943686419656274 H 0.0 **** 0.06
504 H 112.72837203156526 82.07500066845932 51.63660298436898 H 0.0 **** 0.06
505 H 113.25894372035452 83.31529072122316 50.475123477412865 H 0.0 **** 0.06
506 C 88.77689948415255 80.77684360311784 67.85995438438306 C 0.0 **** -0.24
507 H 89.21498742955785 81.20251551856319 68.76276306067774 H 0.0 **** 0.06
508 H 87.92955602359135 81.38640701991352 67.54537267302737 H 0.0 **** 0.06
509 H 88.43798334938671 79.7615451456494 68.06472986772462 H 0.0 **** 0.06
510 H 89.52532224143883 80.75765180593632 67.06756988443135 H 0.0 **** 0.06
511 C 100.97450898561956 103.20973693059949 29.120134496994474 C 0.0 **** -0.24
512 H 101.8958644284308 103.7471509439356 29.34626166612948 H 0.0 **** 0.06
513 H 100.28187091272449 103.87553819512442 28.604353187657047 H 0.0 **** 0.06
514 H 100.52130015111288 102.86122890574205 30.047592840342652 H 0.0 **** 0.06
515 H 101.20036210876509 102.35541097080221 28.482355048558595 H 0.0 **** 0.06
516 C 79.5145962954465 108.39798998794723 72.58954008611113 C 0.0 **** -0.24
517 H 80.49912127847341 108.1769146399121 73.00156723062594 H 0.0 **** 0.06
518 H 78.95824166279237 109.01812449656794 73.29367213556702 H 0.0 **** 0.06
519 H 78.97427014822847 107.46665488216209 72.41953505061485 H 0.0 **** 0.06
520 H 79.62661606598158 108.93183763243451 71.64593774251114 H 0.0 **** 0.06
521 C 66.9944212473105 12.929048022341917 29.26204475343684 C 0.0 **** -0.24
522 H 66.5110008018979 13.88056725480972 29.484139259106797 H 0.0 **** 0.06
523 H 66.78429056814807 12.219652450704487 30.06204669758742 H 0.0 **** 0.06
524 H 68.0719213505935 13.079285052061039 29.183079022459765 H 0.0 **** 0.06
525 H 66.61201398680004 12.539237723725392 28.319259153341932 H 0.0 **** 0.06
526 C 120.83933761925891 121.81453633645239 96.0644219623614 C 0.0 **** -0.24
527 H 121.78847804247837 121.90110586319389 96.59295699562759 H 0.0 **** 0.06
528 H 120.56231123960085 122.78604878899733 95.65490996188413 H 0.0 **** 0.06
529 H 120.06728825910784 121.47880695907048 96.75676992455828 H 0.0 **** 0.06
530 H 120.9383259484454 121.09309163338952 95.2535792153073 H 0.0 **** 0.06
531 C 10.293561919649079 61.74528175474857 24.864320814572153 C 0.0 **** -0.24
532 H 10.522676760547768 60.87878102139211 24.24450635552361 H 0.0 **** 0.06
533 H 11.173143128548617 62.01568810269496 25.44916649798111 H 0.0 **** 0.06
534 H 9.469454106022425 61.50464653465662 25.535588352009768 H 0.0 **** 0.06
535 H 10.010022516861596 62.582727935270164 24.22618174109226 H 0.0 **** 0.06
536 C 77.8934849810411 120.0413089683002 3.3957041258325376 C 0.0 **** -0.24
537 H 78.24792485659191 119.01076846166637 3.3695740614028864 H 0.0 **** 0.06
538 H 76.83137691832792 120.06616033038807 3.14867965003657 H 0.0 **** 0.06
539 H 78.44900660418597 120.63467847876313 2.6689059934074066 H 0.0 **** 0.06
540 H 78.04541050879385 120.45218376133424 4.393036859881903 H 0.0 **** 0.06
541 C 56.27049084544834 32.5427869281379 24.03652569824621 C 0.0 **** -0.24
542 H 56.21986477257068 33.33303015958697 24.78516428386628 H 0.0 **** 0.06
543 H 55.551280186612736 32.746769656133495 23.242806449166068 H 0.0 **** 0.06
544 H 56.03511472816982 31.586163545910864 24.503564184751767 H 0.0 **** 0.06
545 H 57.27555146694363 32.50438056314343 23.616876789658903 H 0.0 **** 0.06
546 C 11.81128099427832 102.3153617866536 43.25311995035031 C 0.0 **** -0.24
547 H 11.92005069042861 103.36001404774862 43.54310941009811 H 0.0 **** 0.06
548 H 12.017662854654247 101.67691396326228 44.11251280028716 H 0.0 **** 0.06
549 H 12.514186850769022 102.08620805006302 42.45194639153914 H 0.0 **** 0.06
550 H 10.793279001733538 102.1392807693112 42.90514931209401 H 0.0 **** 0.06
551 C 99.70628405914269 9.451451498965355 84.35608362115119 C 0.0 **** -0.24
552 H 99.96996386321536 8.420860629582904 84.59227107321576 H 0.0 **** 0.06
553 H 98.6269559720862 9.578732255271206 84.44190693766635 H 0.0 **** 0.06
554 H 100.01942608957353 9.682183863341947 83.33769087198422 H 0.0 **** 0.06
555 H 100.20790220490863 10.123659029568017 85.05219309383511 H 0.0 **** 0.06
556 C 33.50150705445131 72.03086761138803 23.776806917410468 C 0.0 **** -0.24
557 H 33.69759796235212 72.00230759324077 24.848232491686275 H 0.0 **** 0.06
558 H 34.28607305260016 71.4901156560864 23.24881111207109 H 0.0 **** 0.06
559 H 33.482724490447154 73.06780300695974 23.439355579511542 H 0.0 **** 0.06
560 H 32.53708328564237 71.56435438990454 23.57195470956581 H 0.0 **** 0.06
561 C 53.13192133289172 8.752858028315146 43.340437647030235 C 0.0 **** -0.24
562 H 52.17798578841166 8.253509952452518 43.17034762769608 H 0.0 **** 0.06
563 H 53.939784058288836 8.139814377264358 42.940374588358615 H 0.0 **** 0.06
564 H 53.280753498367574 8.896867520760537 44.41005875714404 H 0.0 **** 0.06
565 H 53.12875477071975 9.721820003332823 42.840263830346935 H 0.0 **** 0.06
566 C 46.628622464510784 35.27255601269932 29.230244056603105 C 0.0 **** -0.24
567 H 47.46191846889421 35.87079383833592 29.596719590797875 H 0.0 **** 0.06
568 H 46.62059711628355 35.28992932923985 28.139552076703268 H 0.0 **** 0.06
569 H 45.692880580158786 35.6847862847467 29.606930160509926 H 0.0 **** 0.06
570 H 46.738782509298716 34.24416903712821 29.576507260276017 H 0.0 **** 0.06
571 C 79.4958886025072 17.835490277390875 46.51388690184422 C 0.0 **** -0.24
572 H 79.83653171362346 17.045532916010927 45.84501491751584 H 0.0 **** 0.06
573 H 79.13859103915792 17.393925704571075 47.444328368477954 H 0.0 **** 0.06
574 H 78.68683892319561 18.390748606380498 46.03949790180758 H 0.0 **** 0.06
575 H 80.32351557565255 18.51241939060577 46.72763381247354 H 0.0 **** 0.06
576 C 63.441547588483 50.72530901380043 11.849162578936244 C 0.0 **** -0.24
577 H 63.6250555548119 50.04831942275078 12.682667211246525 H 0.0 **** 0.06
578 H 62.84389411521517 51.5709880319325 12.191483384122193 H 0.0 **** 0.06
579 H 62.9039700962117 50.19526461946765 11.062100585595914 H 0.0 **** 0.06
580 H 64.39281969763292 51.08654767436067 11.459063738871905 H 0.0 **** 0.06
581 C 42.198796752723894 67.14120944418937 112.34735428552057 C 0.0 **** -0.24
582 H 41.34260782282024 66.6873892672985 112.8473532285775 H 0.0 **** 0.06
583 H 42.272481326646414 66.75379402583337 111.33136610310532 H 0.0 **** 0.06
584 H 43.108960074771545 66.90035233797482 112.8961873058912 H 0.0 **** 0.06
585 H 42.06942756892573 68.22246792765654 112.31605308987838 H 0.0 **** 0.06
586 C 54.4495318148187 93.23464349560584 19.39526895172604 C 0.0 **** -0.24
587 H 54.118983585688824 92.73950499615933 18.481735749353902 H 0.0 **** 0.06
588 H 53.758959162428226 94.03938839717125 19.643216660586567 H 0.0 **** 0.06
589 H 55.448542457440595 93.64465599131438 19.2443131173698 H 0.0 **** 0.06
590 H 54.47385658317518 92.51131626043423 20.210278854658064 H 0.0 **** 0.06
591 C 81.39439104402089 61.18631527736958 76.06127403634733 C 0.0 **** -0.24
592 H 81.01502936882235 61.53099334015162 77.02386894003419 H 0.0 **** 0.06
593 H 80.9540757551182 60.21872592687303 75.82279057388124 H 0.0 **** 0.06
594 H 82.47881126088208 61.0911327286227 76.11115561717722 H 0.0 **** 0.06
595 H 81.12835368595921 61.907114979515946 75.2872171133917 H 0.0 **** 0.06
596 C 16.521114150105745 8.560450604377241 58.25633039126225 C 0.0 **** -0.24
597 H 15.874561545370682 9.13866104196627 57.59595355344416 H 0.0 **** 0.06
598 H 16.02836832419166 8.426079437570476 59.21975196129935 H 0.0 **** 0.06
599 H 17.461851722143592 9.0924520146935 58.40005053803142 H 0.0 **** 0.06
600 H 16.719072887719904 7.586751880171615 57.809342466792884 H 0.0 **** 0.06
601 C 31.625381205098506 82.77542628286935 35.43523964806644 C 0.0 **** -0.24
602 H 32.69765839601746 82.65645767963699 35.276793195193356 H 0.0 **** 0.06
603 H 31.231436453542585 83.5005032754365 34.723167313495324 H 0.0 **** 0.06
604 H 31.44602749924627 83.12890519203424 36.450574584681966 H 0.0 **** 0.06
605 H 31.12853701898848 81.81636113856649 35.29083743210341 H 0.0 **** 0.06
606 C 66.92050795684585 10.27911582931019 57.48175477426764 C 0.0 **** -0.24
607 H 66.86441091477303 9.208204426388942 57.28439706563174 H 0.0 **** 0.06
608 H 66.52494662683685 10.486460036579224 58.475359658309 H 0.0 **** 0.06
609 H 66.33310430320225 10.81565458496091 56.73678817851609 H 0.0 **** 0.06
610 H 67.95982531816733 10.603994105707581 57.427961782924825 H 0.0 **** 0.06
611 C 107.56793124005921 119.11698385864672 14.577289464730057 C 0.0 **** -0.24
612 H 107.20740981173535 118.4485113895388 15.358338066406077 H 0.0 **** 0.06
613 H 106.76659251570106 119.3088742279711 13.864031137124385 H 0.0 **** 0.06
614 H 108.40942200133716 118.65202993120624 14.061313294992402 H 0.0 **** 0.06
615 H 107.8914556802946 120.05635156470244 15.023944022274264 H 0.0 **** 0.06
616 C 67.72735477798864 56.370665011597595 99.51002276219666 C 0.0 **** -0.24
617 H 66.85829715619849 55.7317068234552 99.66285386253693 H 0.0 **** 0.06
618 H 68.58292517645299 55.75766800118154 99.22511025931951 H 0.0 **** 0.06
619 H 67.95371464565102 56.902971045019626 100.43472363973447 H 0.0 **** 0.06
620 H 67.51463382173353 57.09049572448677 98.71962686751877 H 0.0 **** 0.06
621 C 56.30525465964172 17.2561192519085 77.34648664082539 C 0.0 **** -0.24
622 H 55.852290649244395 16.424003925760957 76.80911645058455 H 0.0 **** 0.06
623 H 55.76281928467688 18.174235755870825 77.11803500811277 H 0.0 **** 0.06
624 H 57.345711995103755 17.362750404162057 77.03924004311884 H 0.0 **** 0.06
625 H 56.261072564108616 17.064813572201928 78.41886727911921 H 0.0 **** 0.06
626 C 4.727916015164482 15.688199920563179 85.86273798241666 C 0.0 **** -0.24
627 H 4.069174284181827 14.969634877770304 86.3497900397069 H 0.0 **** 0.06
628 H 5.394579456552577 15.163068547377918 85.1778912199677 H 0.0 **** 0.06
629 H 5.319016200610591 16.20850765411444 86.61710965683943 H 0.0 **** 0.06
630 H 4.130580995732387 16.41027468751693 85.30735617341392 H 0.0 **** 0.06
631 C 23.31645335571858 59.865354796792396 117.22756882305904 C 0.0 **** -0.24
632 H 22.672570941637957 60.50835555141807 117.82798419551608 H 0.0 **** 0.06
633 H 24.346675575120628 60.21804600957298 117.29771409422534 H 0.0 **** 0.06
634 H 22.992428081443563 59.89622894013477 116.18739839146443 H 0.0 **** 0.06
635 H 23.255407744250476 58.84266085956741 117.59780873924618 H 0.0 **** 0.06
636 C 113.30263576225367 111.11546233120202 113.84630924921433 C 0.0 **** -0.24
637 H 112.58977690467091 110.59138021073849 114.48220252525695 H 0.0 **** 0.06
638 H 113.19969037524592 112.19046189002411 113.99505513510013 H 0.0 **** 0.06
639 H 113.10616434967021 110.87163692238391 112.80249736245716 H 0.0 **** 0.06
640 H 114.31608347456535 110.80743181690144 114.10713902305318 H 0.0 **** 0.06
641 C 120.25920168822785 14.607608240533665 90.2811278302317 C 0.0 **** -0.24
642 H 121.3120390490252 14.402405403925059 90.08510368211392 H 0.0 **** 0.06
643 H 119.64708726997003 14.121005908239908 89.52206972160224 H 0.0 **** 0.06
644 H 120.08795172024838 15.68355201527848 90.2532432096323 H 0.0 **** 0.06
645 H 119.99195187498952 14.223482520217942 91.26610912775826 H 0.0 **** 0.06
646 C 37.00282210996426 78.35446499445266 109.02577429652786 C 0.0 **** -0.24
647 H 36.90717212205274 79.20096997837234 108.34557099053745 H 0.0 **** 0.06
648 H 36.479848882961875 78.57454729633187 109.95640521599967 H 0.0 **** 0.06
649 H 38.05719983934051 78.17350527018581 109.23480375348453 H 0.0 **** 0.06
650 H 36.56731809640468 77.46720852549856 108.56518403036176 H 0.0 **** 0.06
651 C 70.78479889154443 63.82026343960239 100.83700063632256 C 0.0 **** -0.24
652 H 69.98529543314717 63.218007004570005 100.40538907319953 H 0.0 **** 0.06
653 H 70.52252605728842 64.09070332165243 101.859980292507 H 0.0 **** 0.06
654 H 70.91985403286515 64.7243097849503 100.24463305550518 H 0.0 **** 0.06
655 H 71.71080462244868 63.244536892715324 100.83912336078583 H 0.0 **** 0.06
656 C 11.94533371734548 51.29852634637294 17.870158440561283 C 0.0 **** -0.24
657 H 11.871432548556278 51.60499723079863 18.913837689166172 H 0.0 **** 0.06
658 H 11.22517476092965 50.5035053803668 17.67265917786156 H 0.0 **** 0.06
659 H 12.952843415235616 50.934484130278804 17.669079851615862 H 0.0 **** 0.06
660 H 11.731884144660405 52.15111864404764 17.225057043601595 H 0.0 **** 0.06
661 C 102.57020746067946 25.209990930736552 25.442102849999145 C 0.0 **** -0.24
662 H 101.60453622718344 25.051409151566673 24.961367938973922 H 0.0 **** 0.06
663 H 103.23893705351713 25.726874656317648 24.75193821795149 H 0.0 **** 0.06
664 H 103.00254284843913 24.24729499694729 25.714735893538943 H 0.0 **** 0.06
665 H 102.43452184438561 25.815049799176933 26.33802988815779 H 0.0 **** 0.06
666 C 107.88367719373983 101.39131005293896 75.64668888345275 C 0.0 **** -0.24
667 H 108.62289625959554 101.00905140706956 76.35124454305287 H 0.0 **** 0.06
668 H 106.9795081046559 101.67385542446041 76.18664679416909 H 0.0 **** 0.06
669 H 107.64464312200087 100.61795908683544 74.91670318215475 H 0.0 **** 0.06
670 H 108.28804282933248 102.26378976710495 75.13339100105952 H 0.0 **** 0.06
671 C 83.16250893065848 4.531281806455809 99.78707363473191 C 0.0 **** -0.24
672 H 83.48025598043029 4.275195861263597 100.79775307221647 H 0.0 **** 0.06
673 H 83.97826865114473 4.340575571935489 99.09024488909648 H 0.0 **** 0.06
674 H 82.89038586432767 5.586386165480718 99.74788182339589 H 0.0 **** 0.06
675 H 82.3003320739065 3.923576290873598 99.51236068594622 H 0.0 **** 0.06
676 C 23.69325525406333 50.13938660791092 40.65571705238486 C 0.0 **** -0.24
677 H 24.607351364682984 50.26928292464214 40.076096147465705 H 0.0 **** 0.06
678 H 23.782896024161403 49.25263779368083 41.2826629543093 H 0.0 **** 0.06
679 H 22.846739392867107 50.02223754952968 39.978389820772435 H 0.0 **** 0.06
680 H 23.535514334284244 51.01545655491606 41.285047170790506 H 0.0 **** 0.06
681 C 0.46143898972935915 105.51748771975011 35.07364113901559 C 0.0 **** -0.24
682 H 1.057591113685703 106.36641476502501 34.73837756088065 H 0.0 **** 0.06
683 H 1.088694540003516 104.84075209802367 35.65494963796445 H 0.0 **** 0.06
684 H 0.06250541862286241 104.98920465652901 34.20751115032073 H 0.0 **** 0.06
685 H -0.36167910618287635 105.87317932977231 35.69368970969239 H 0.0 **** 0.06
686 C 107.97698298774907 95.3669024521435 108.37663323628536 C 0.0 **** -0.24
687 H 108.83444721157386 95.2972617580528 109.04634693334123 H 0.0 **** 0.06
688 H 108.24046919369627 94.9482005898063 107.4047093866206 H 0.0 **** 0.06
689 H 107.69269700199087 96.41209039299659 108.25638868112006 H 0.0 **** 0.06
690 H 107.14108252057378 94.80828935929867 108.79795135941876 H 0.0 **** 0.06
691 C 98.99123143073308 59.22534655369077 52.57989342862702 C 0.0 **** -0.24
692 H 99.93427095150872 59.77161330748993 52.552375315713114 H 0.0 **** 0.06
693 H 98.99465302292447 58.536881334154714 53.42454011544964 H 0.0 **** 0.06
694 H 98.8689046834173 58.66418941333421 51.65281736474072 H 0.0 **** 0.06
695 H 98.16631676072242 59.93033257401231 52.68852442596731 H 0.0 **** 0.06
696 C 86.27814158704683 8.652918673663066 115.5557042156909 C 0.0 **** -0.24
697 H 87.15001465046771 8.53562034966356 114.91242622542967 H 0.0 **** 0.06
698 H 86.60342002197592 8.924305296458726 116.56043821873689 H 0.0 **** 0.06
699 H 85.72556223195238 7.714683506235019 115.59245871984707 H 0.0 **** 0.06
700 H 85.63637918316044 9.43844953940058 115.15705726626638 H 0.0 **** 0.06
701 C 81.11423673422581 87.40867100874317 34.82773426551404 C 0.0 **** -0.24
702 H 82.09968748346836 87.21945787487792 34.40378702958793 H 0.0 **** 0.06
703 H 80.73031359978796 88.35595762895855 34.44812491782233 H 0.0 **** 0.06
704 H 81.18938451298797 87.45709183941202 35.914054827137534 H 0.0 **** 0.06
705 H 80.43660287061991 86.60253151169411 34.54594780952743 H 0.0 **** 0.06
706 C 42.326452919744156 14.971579888820525 23.70135602739522 C 0.0 **** -0.24
707 H 42.35035980579795 15.792726388641583 22.984058957693378 H 0.0 **** 0.06
708 H 42.6712162276296 14.057674770577076 23.21769620849136 H 0.0 **** 0.06
709 H 41.305208384596995 14.832038734260781 24.057684620083677 H 0.0 **** 0.06
710 H 42.9771713612588 15.20561952884697 24.54342908895704 H 0.0 **** 0.06
711 C 109.92647641888425 39.05566456183896 69.76445389251461 C 0.0 **** -0.24
712 H 109.23580414103992 38.25789674699437 70.03845657798257 H 0.0 **** 0.06
713 H 110.34686339283758 39.49774143592893 70.66829293414634 H 0.0 **** 0.06
714 H 109.39152669345935 39.82060121985034 69.20078388189933 H 0.0 **** 0.06
715 H 110.7294240623379 38.647664969027424 69.15207538444247 H 0.0 **** 0.06
716 C 120.21620176734581 71.76824466432268 77.56099164862081 C 0.0 **** -0.24
717 H 119.53537578460576 72.60151859064365 77.73382004280955 H 0.0 **** 0.06
718 H 121.22273781957877 72.05063001354904 77.87271416361017 H 0.0 **** 0.06
719 H 120.22191039940536 71.51746697372448 76.50065111711064 H 0.0 **** 0.06
720 H 119.88650837435765 70.9038848800497 78.13764802181714 H 0.0 **** 0.06
721 C 8.120703644298956 112.3359503709384 114.8232967546463 C 0.0 **** -0.24
722 H 8.279573609479243 113.14045364919025 115.54182578994187 H 0.0 **** 0.06
723 H 9.061656139502674 112.10473701827783 114.3228559662775 H 0.0 **** 0.06
724 H 7.382462404963519 112.65004558664347 114.08403880807987 H 0.0 **** 0.06
725 H 7.757545515471122 111.45014863924253 115.34454679236254 H 0.0 **** 0.06
726 C 86.60545609834224 45.63691818109089 30.375746497696404 C 0.0 **** -0.24
727 H 85.80734677959424 45.98267229390902 31.03314802738955 H 0.0 **** 0.06
728 H 87.28226047387096 44.99063367686472 30.93588878691594 H 0.0 **** 0.06
729 H 87.15703697160063 46.49517025665955 29.9914951924656 H 0.0 **** 0.06
730 H 86.17532306678345 45.07898493871065 29.54416716530441 H 0.0 **** 0.06
731 C 8.263518568104203 85.60738761224536 30.428438173846075 C 0.0 **** -0.24
732 H 8.115645733011206 85.09063274218911 31.377029863069595 H 0.0 **** 0.06
733 H 7.2943587145669255 85.83363605791709 29.98368997877172 H 0.0 **** 0.06
734 H 8.833829008458295 84.96939027672741 29.752932764222535 H 0.0 **** 0.06
735 H 8.810060316636026 86.53420254943126 30.60155459129227 H 0.0 **** 0.06
736 C 38.54713755074505 60.03594969081294 50.97179850557672 C 0.0 **** -0.24
737 H 37.6414971774517 60.2298796885633 51.546735730775836 H 0.0 **** 0.06
738 H 39.209866262065475 59.387708941869704 51.54721996080078 H 0.0 **** 0.06
739 H 39.05243781065832 60.97828982634428 50.76099331817813 H 0.0 **** 0.06
740 H 38.2840932858129 59.546180502397505 50.0345995153726 H 0.0 **** 0.06
741 C 97.22336671359568 67.80537979090789 77.58404271696799 C 0.0 **** -0.24
742 H 96.37248273992245 67.18031733628752 77.85653229083357 H 0.0 **** 0.06
743 H 96.90848037090424 68.8480754465636 77.54072415430585 H 0.0 **** 0.06
744 H 97.60198325151515 67.49811407830148 76.60850978470623 H 0.0 **** 0.06
745 H 98.00994225508711 67.69290219517183 78.32994272083573 H 0.0 **** 0.06
746 C 66.70475542485582 71.80047390536978 108.52212403213588 C 0.0 **** -0.24
747 H 67.4292334398865 71.52229643434498 107.75593012954874 H 0.0 **** 0.06
748 H 65.6953694321067 71.66200314584466 108.13426334066793 H 0.0 **** 0.06
749 H 66.84951716181502 72.84493241854508 108.7970595627022 H 0.0 **** 0.06
750 H 66.84566641543506 71.17018960321343 109.40010518948915 H 0.0 **** 0.06
751 C 74.13269685721372 103.8865917076686 59.02610137708688 C 0.0 **** -0.24
752 H 75.18869158902402 103.67154362827182 59.19176856992767 H 0.0 **** 0.06
753 H 73.98595749746627 104.21686446049554 57.997179774444845 H 0.0 **** 0.06
754 H 73.80987822620969 104.67177510485203 59.71005628538091 H 0.0 **** 0.06
755 H 73.54598186918687 102.98454126619853 59.205875603337695 H 0.0 **** 0.06
756 C 21.410599474967 7.218961072708197 92.73137217540364 C 0.0 **** -0.24
757 H 21.194443764260697 7.615690968916766 91.739924158214 H 0.0 **** 0.06
758 H 21.66335410095556 8.03984267926566 93.4033518493344 H 0.0 **** 0.06
759 H 22.250995728957875 6.527399337204372 92.67035873931175 H 0.0 **** 0.06
760 H 20.53417829567455 6.694689745529871 93.11114127739418 H 0.0 **** 0.06
761 C 31.42708283509532 52.700296340739726 26.522595745646072 C 0.0 **** -0.24
762 H 31.89080345665417 52.728109614455434 27.509043808096635 H 0.0 **** 0.06
763 H 30.72700726357553 53.530527335076044 26.428198551143566 H 0.0 **** 0.06
764 H 30.89348635376976 51.75838737700832 26.399042610883782 H 0.0 **** 0.06
765 H 32.19811925331234 52.785202452781505 25.757054170035417 H 0.0 **** 0.06
766 C 115.03242351831148 34.504998657988295 103.11083234151758 C 0.0 **** -0.24
767 H 114.24191851920304 33.92757237513639 103.58967765692216 H 0.0 **** 0.06
768 H 115.9699881561832 34.353891530613616 103.64761574332198 H 0.0 **** 0.06
769 H 114.77123965020176 35.562643888802064 103.12678932338594 H 0.0 **** 0.06
770 H 115.14811759093374 34.175127875819236 102.07784669682749 H 0.0 **** 0.06
771 C 55.55774478956342 80.70172707692586 121.75418105456447 C 0.0 **** -0.24
772 H 56.40048089324343 80.06569633242654 121.48058287508735 H 0.0 **** 0.06
773 H 54.628803202860006 80.23261994316425 121.42900696316444 H 0.0 **** 0.06
774 H 55.664227233769076 81.67244833639046 121.27092873663838 H 0.0 **** 0.06
775 H 55.539421230092195 80.83507136255278 122.83601962820413 H 0.0 **** 0.06
776 C 37.72373726206985 50.55181387271281 91.72265570270272 C 0.0 **** -0.24
777 H 38.731057216584645 50.90398035265497 91.50400684997493 H 0.0 **** 0.06
778 H 37.44792851152539 50.84474440417162 92.73542435192883 H 0.0 **** 0.06
779 H 37.69331991781121 49.46510632724133 91.63725849386188 H 0.0 **** 0.06
780 H 37.022708124525195 50.99113615420313 91.01306130936484 H 0.0 **** 0.06
781 C 119.60747891807709 77.55234054061077 92.47121014834582 C 0.0 **** -0.24
782 H 118.5808205543768 77.36648155070202 92.78592453023174 H 0.0 **** 0.06
783 H 120.28406851455513 77.35948592620178 93.30402091263912 H 0.0 **** 0.06
784 H 119.70751440294984 78.59075786911924 92.15460707202107 H 0.0 **** 0.06
785 H 119.85695432331165 76.89310342724059 91.63960170896331 H 0.0 **** 0.06
786 C 1.9151583788680568 61.101903780797564 88.70248225905178 C 0.0 **** -0.24
787 H 1.0493832194112542 61.196536330402886 88.04729055732983 H 0.0 **** 0.06
788 H 2.738514840423022 61.69586400153042 88.30421778631026 H 0.0 **** 0.06
789 H 2.2149158313765156 60.05611218383036 88.7593809449015 H 0.0 **** 0.06
790 H 1.6567173929097407 61.46102595651062 89.69933316317423 H 0.0 **** 0.06
791 C 35.774039277419895 85.02052170429738 49.548502104879624 C 0.0 **** -0.24
792 H 35.933268783818505 85.54923649656283 48.609026863738954 H 0.0 **** 0.06
793 H 36.392748245683656 84.12384750632981 49.5704493174947 H 0.0 **** 0.06
794 H 34.72410519213137 84.74033908170586 49.63493853597496 H 0.0 **** 0.06
795 H 36.04559860181839 85.67056002449112 50.380695523379664 H 0.0 **** 0.06
796 C 58.690555358058646 2.736705504324661 82.27147257921857 C 0.0 **** -0.24
797 H 59.57796004462642 3.2461267866841013 82.64826835529178 H 0.0 **** 0.06
798 H 58.09579354750045 3.4345726126337865 81.68139456381854 H 0.0 **** 0.06
799 H 58.09774821090454 2.3734255186313646 83.11102929291212 H 0.0 **** 0.06
800 H 58.990797647056695 1.8952721647052897 81.64728701938245 H 0.0 **** 0.06
801 C 26.165127818476265 78.92281311646477 98.89567664058066 C 0.0 **** -0.24
802 H 26.720868830303317 79.4936528325861 98.15147700358787 H 0.0 **** 0.06
803 H 26.385437953165294 77.8618549692587 98.77962769575493 H 0.0 **** 0.06
804 H 25.096565004721754 79.09016086549343 98.75809608350443 H 0.0 **** 0.06
805 H 26.456799526612485 79.24765901876725 99.89449989396104 H 0.0 **** 0.06
806 C 75.66607159011227 76.07548671842721 107.98511227770709 C 0.0 **** -0.24
807 H 74.74764758375812 75.98078339339133 107.4061470542702 H 0.0 **** 0.06
808 H 76.33664021176827 75.25173937520668 107.74002213548965 H 0.0 **** 0.06
809 H 75.42960268845917 76.04659041488588 109.04891940778268 H 0.0 **** 0.06
810 H 76.14997249905792 77.02222981947494 107.74603590010247 H 0.0 **** 0.06
811 C 13.358839364481668 14.591325188732888 101.43866196854862 C 0.0 **** -0.24
812 H 13.199463105148737 15.194357790254088 102.33241976832 H 0.0 **** 0.06
813 H 12.456623048343175 14.602799986639514 100.82711869329196 H 0.0 **** 0.06
814 H 13.588296473112734 13.565396473921918 101.72777764366961 H 0.0 **** 0.06
815 H 14.19167844910254 15.002395414184289 100.86671393921017 H 0.0 **** 0.06
816 C 51.8162881410324 54.34001435366005 18.526552182641268 C 0.0 **** -0.24
817 H 51.40039110170906 54.95559515502893 17.729597353276034 H 0.0 **** 0.06
818 H 52.881737192007506 54.5502203852831 18.63008470719288 H 0.0 **** 0.06
819 H 51.67542621505288 53.286784404632556 18.282835655963567 H 0.0 **** 0.06
820 H 51.308917887041076 54.56710199477311 19.46405404751738 H 0.0 **** 0.06
821 C 16.147600012070285 31.19881329499995 23.991783660448277 C 0.0 **** -0.24
822 H 16.157699423656283 30.135108988772373 23.75380406988512 H 0.0 **** 0.06
823 H 17.17123242246882 31.55711612381299 24.095787699693844 H 0.0 **** 0.06
824 H 15.61018313602878 31.356113248596813 24.92704777549855 H 0.0 **** 0.06
825 H 15.650477458477098 31.745806191578282 23.190839809426606 H 0.0 **** 0.06
826 C 56.44546275661393 105.88565063927638 7.809872651708474 C 0.0 **** -0.24
827 H 56.514602796784594 104.79993441723107 7.739118888808207 H 0.0 **** 0.06
828 H 57.42827285221038 106.29663575920156 8.04067706221332 H 0.0 **** 0.06
829 H 55.74430330003235 106.15380835085293 8.600341501450686 H 0.0 **** 0.06
830 H 56.09591169212542 106.28923883785467 6.860096522790315 H 0.0 **** 0.06
831 C 94.66504860195536 100.07117266654092 50.87967077064877 C 0.0 **** -0.24
832 H 93.73421311684706 99.54846738384742 51.102676799380276 H 0.0 **** 0.06
833 H 94.92761220743066 100.71878139714167 51.715706277757306 H 0.0 **** 0.06
834 H 94.53575201953583 100.6734222837716 49.97985302430186 H 0.0 **** 0.06
835 H 95.45990891499252 99.34340002280322 50.71931448292901 H 0.0 **** 0.06
836 C 111.29769522192714 39.96383308715447 13.390463871474836 C 0.0 **** -0.24
837 H 110.3886781799298 40.40670170632677 13.798221846888872 H 0.0 **** 0.06
838 H 111.24449515634598 38.878690161866366 13.481407499880493 H 0.0 **** 0.06
839 H 112.16067503829211 40.332810141350635 13.94425071570939 H 0.0 **** 0.06
840 H 111.3952857477048 40.23606898946868 12.340457812842452 H 0.0 **** 0.06
841 C 75.99828991305174 64.41635437517215 32.108944829712826 C 0.0 **** -0.24
842 H 75.31594951356033 63.97742068687825 31.38190710367563 H 0.0 **** 0.06
843 H 76.94362381453101 63.872237364581764 32.09488340622244 H 0.0 **** 0.06
844 H 75.55828874315765 64.3549979439978 33.104443450299335 H 0.0 **** 0.06
845 H 76.17696098724548 65.4613966574214 31.855456338273257 H 0.0 **** 0.06
846 C 12.979355181969886 10.299278421796622 49.755044827393874 C 0.0 **** -0.24
847 H 13.196057253929471 11.011234094146811 48.95822144747035 H 0.0 **** 0.06
848 H 12.937537638909305 9.291721709460408 49.34016539182582 H 0.0 **** 0.06
849 H 12.020805203291864 10.545365599055632 50.21080256177734 H 0.0 **** 0.06
850 H 13.76461174804625 10.349861396407682 50.509464889589225 H 0.0 **** 0.06
851 C 43.1693324840638 39.30589117443199 17.74199619456268 C 0.0 **** -0.24
852 H 43.291516680877464 38.65758264302306 18.60943793682034 H 0.0 **** 0.06
853 H 42.18618651835786 39.142659124900405 17.30200714314704 H 0.0 **** 0.06
854 H 43.940757539722014 39.07636341150706 17.006270992744387 H 0.0 **** 0.06
855 H 43.26160851392278 40.346697377324205 18.050922824670273 H 0.0 **** 0.06
856 C 83.33636601149513 111.22771212988314 56.32134836866357 C 0.0 **** -0.24
857 H 83.90890665289157 110.30519565184315 56.408667322063614 H 0.0 **** 0.06
858 H 83.68683912285451 111.79188231081054 55.456372183372316 H 0.0 **** 0.06
859 H 83.47082311546359 111.82541666786449 57.2235821362195 H 0.0 **** 0.06
860 H 82.28033169026966 110.98974390810776 56.196838431276994 H 0.0 **** 0.06
861 C 1.0893251405201738 49.49314295836392 57.73847183151858 C 0.0 **** -0.24
862 H 1.472231496953782 50.46740540955118 57.43434103969517 H 0.0 **** 0.06
863 H 0.21114381607986843 49.62843140711037 58.36935271847469 H 0.0 **** 0.06
864 H 1.8593000571673315 48.95927411398411 58.296004654085095 H 0.0 **** 0.06
865 H 0.8174549271817 48.91779156479062 56.85281639154232 H 0.0 **** 0.06
866 C 12.001689034649011 99.0459352721474 36.3825266146639 C 0.0 **** -0.24
867 H 12.196189957999973 99.82853357368589 35.65006067981875 H 0.0 **** 0.06
868 H 11.918558592483333 98.08454959573203 35.87390677812925 H 0.0 **** 0.06
869 H 11.070679375443206 99.26118018102528 36.905811152815716 H 0.0 **** 0.06
870 H 12.82144789175366 99.0080845354392 37.10011624813245 H 0.0 **** 0.06
871 C 113.10493328480814 12.403181963711575 119.33929925662216 C 0.0 **** -0.24
872 H 112.52666300781466 11.558563058695313 118.96401463163795 H 0.0 **** 0.06
873 H 112.43310406426338 13.123536804240814 119.80776656786554 H 0.0 **** 0.06
874 H 113.62885645608971 12.880279556039198 118.51178644106665 H 0.0 **** 0.06
875 H 113.82911424003105 12.050277323062716 120.07374626216222 H 0.0 **** 0.06
876 C 5.046533029438862 36.73724747234981 36.489423586715844 C 0.0 **** -0.24
877 H 6.0360126696631795 36.910779674857096 36.06626551531241 H 0.0 **** 0.06
878 H 4.9141014002429415 37.36517952273425 37.37121233940809 H 0.0 **** 0.06
879 H 4.951624025404286 35.68902087981775 36.772070711331764 H 0.0 **** 0.06
880 H 4.285749194395763 36.98465298683078 35.74901180742478 H 0.0 **** 0.06
881 C 117.20240402043473 98.66802241518789 19.51284954557468 C 0.0 **** -0.24
882 H 117.88179613798798 97.82172590953712 19.415465469869957 H 0.0 **** 0.06
883 H 117.77151213605347 99.56234254773932 19.76937568470879 H 0.0 **** 0.06
884 H 116.47638289922895 98.46199685864838 20.29940211036387 H 0.0 **** 0.06
885 H 116.6813109336197 98.8264172580815 18.56854228036019 H 0.0 **** 0.06
886 C 48.27836331955192 108.79685490123393 113.54339877757059 C 0.0 **** -0.24
887 H 48.70362393505288 108.44019890029654 114.48171272088098 H 0.0 **** 0.06
888 H 49.05343764766777 109.29770379401128 112.96167684511946 H 0.0 **** 0.06
889 H 47.47101056987446 109.49910132767917 113.75351464973306 H 0.0 **** 0.06
890 H 47.88718061796837 107.95198289891383 112.97724377962169 H 0.0 **** 0.06
891 C 22.499426675181816 51.6603217109968 61.66829135233536 C 0.0 **** -0.24
892 H 21.529282987922727 51.164041011032566 61.65815267686014 H 0.0 **** 0.06
893 H 22.9382789107855 51.578314274447365 62.662896123073864 H 0.0 **** 0.06
894 H 22.372354891082004 52.71260731046962 61.41213522474456 H 0.0 **** 0.06
895 H 23.157025201676397 51.186425778850506 60.94061775476223 H 0.0 **** 0.06
896 C 16.20782955419057 108.88406458567124 63.46272287091506 C 0.0 **** -0.24
897 H 16.469275152733868 109.91691435596908 63.23010785945232 H 0.0 **** 0.06
898 H 16.9188409707743 108.48437400016172 64.18683986130955 H 0.0 **** 0.06
899 H 16.242207955254543 108.28695388195945 62.55127891668914 H 0.0 **** 0.06
900 H 15.202313252968988 108.84945685465215 63.881576520300996 H 0.0 **** 0.06
901 C 23.93728769794882 68.36723703489264 96.8753402431351 C 0.0 **** -0.24
902 H 23.8299495332667 69.45182232264278 96.85065379323959 H 0.0 **** 0.06
903 H 23.177194022579357 67.913025114275 96.23893839041085 H 0.0 **** 0.06
904 H 23.815123004894247 68.01288213274347 97.89816400113722 H 0.0 **** 0.06
905 H 24.927192341309166 68.0924613406305 96.5117715209096 H 0.0 **** 0.06
906 C 120.49681951961514 23.922762701462347 0.11019264459145006 C 0.0 **** -0.24
907 H 120.58456187628897 23.5179997930085 1.1181045245770065 H 0.0 **** 0.06
908 H 119.77630753558573 23.33204384501144 -0.45648354528250934 H 0.0 **** 0.06
909 H 121.46793189998988 23.88293011285188 -0.382884651830949 H 0.0 **** 0.06
910 H 120.15847676659622 24.958077054977394 0.1620342509019963 H 0.0 **** 0.06
911 C 104.92239521653866 97.11114284781732 58.38944511198574 C 0.0 **** -0.24
912 H 104.09688519761607 96.46053867639955 58.10119602644744 H 0.0 **** 0.06
913 H 105.30605835807185 96.8018474572585 59.361472921197326 H 0.0 **** 0.06
914 H 104.56986433243705 98.1408680753203 58.447763683210894 H 0.0 **** 0.06
915 H 105.71645368364813 97.0410829102021 57.64566159804042 H 0.0 **** 0.06
916 C 56.058309008711234 6.872533363432691 93.1798421244396 C 0.0 **** -0.24
917 H 55.27859425216076 7.518331108685249 92.77524067399355 H 0.0 **** 0.06
918 H 56.56699417837507 6.360979646924193 92.36154912625292 H 0.0 **** 0.06
919 H 55.610747937303614 6.136130194822368 93.84629430949957 H 0.0 **** 0.06
920 H 56.777428182433056 7.475939569829713 93.7342433513922 H 0.0 **** 0.06
921 C 65.77137611446491 114.85552456578026 117.6713927617632 C 0.0 **** -0.24
922 H 65.88024207078607 113.96785084315378 118.29476400897434 H 0.0 **** 0.06
923 H 66.68846899608587 115.44414133190864 117.71461486605986 H 0.0 **** 0.06
924 H 64.93668844555725 115.45438579509425 118.03570286341349 H 0.0 **** 0.06
925 H 65.58039538119476 114.554839393725 116.64155691102246 H 0.0 **** 0.06
926 C 90.6530021244723 74.43469757223608 105.707781968295 C 0.0 **** -0.24
927 H 90.33692551488505 74.7649529060991 104.71893059020078 H 0.0 **** 0.06
928 H 89.85983745201759 73.84064330866195 106.16345131035197 H 0.0 **** 0.06
929 H 90.86001150867071 75.3039840414738 106.33249335435653 H 0.0 **** 0.06
930 H 91.55419956774551 73.82922421839416 105.61764181569902 H 0.0 **** 0.06
931 C 113.44094302342575 83.30473622937208 57.86068668953627 C 0.0 **** -0.24
932 H 114.21095352980291 83.87709486743526 58.37805652153356 H 0.0 **** 0.06
933 H 113.71807642848034 83.18802698800513 56.81249624169711 H 0.0 **** 0.06
934 H 112.48946623984722 83.83233617840907 57.92810597076598 H 0.0 **** 0.06
935 H 113.3458498992224 82.32205440656955 58.322926753784735 H 0.0 **** 0.06
936 C 18.255931560635474 117.66440137840226 95.07731826111495 C 0.0 **** -0.24
937 H 18.350366028702183 118.43891944350992 95.83822299155045 H 0.0 **** 0.06
938 H 17.640676644321616 118.03371613761476 94.25717126438906 H 0.0 **** 0.06
939 H 17.788456562896727 116.7818843058302 95.51387508881044 H 0.0 **** 0.06
940 H 19.245204049715824 117.40307358554492 94.69979086769703 H 0.0 **** 0.06
941 C 95.54558810697537 53.755337333357225 92.44344026554955 C 0.0 **** -0.24
942 H 95.62946522993502 53.78394072552724 91.35708599613059 H 0.0 **** 0.06
943 H 96.41209711859614 53.24253312920178 92.86182902256726 H 0.0 **** 0.06
944 H 94.6374031697118 53.22138060339166 92.7233214317699 H 0.0 **** 0.06
945 H 95.50257551750374 54.772428189814626 92.83107301882339 H 0.0 **** 0.06
946 C 100.40779466615393 75.89319771782965 70.18775992129935 C 0.0 **** -0.24
947 H 101.42807198452641 75.60140380821844 70.43810303549918 H 0.0 **** 0.06
948 H 99.72296968073684 75.09240653872149 70.46827267057205 H 0.0 **** 0.06
949 H 100.33487011169865 76.07624300243896 69.11547843280107 H 0.0 **** 0.06
950 H 100.14747238344236 76.80192985576309 70.73105208446742 H 0.0 **** 0.06
951 C 52.935996584657715 34.323781890571695 75.38671931151674 C 0.0 **** -0.24
952 H 53.73572233033673 34.85927615773011 75.8987503382088 H 0.0 **** 0.06
953 H 53.320567843445616 33.89790133387311 74.45992600460619 H 0.0 **** 0.06
954 H 52.124354600356824 35.01529011584796 75.15925321434594 H 0.0 **** 0.06
955 H 52.56448857492251 33.52474647447315 76.02712250293331 H 0.0 **** 0.06
956 C 32.42013377171949 91.9492679074726 29.47417740072496 C 0.0 **** -0.24
957 H 31.965385369873616 92.78612756090016 28.944021814350243 H 0.0 **** 0.06
958 H 32.022805864142924 91.90383494299112 30.48798580896041 H 0.0 **** 0.06
959 H 33.50027116235222 92.08860263807034 29.512231954792718 H 0.0 **** 0.06
960 H 32.1909660915892 91.02095904595924 28.951143036137246 H 0.0 **** 0.06
961 C 117.12275922759346 38.274542866059676 118.36874054490355 C 0.0 **** -0.24
962 H 116.92504667672542 38.38674951824731 119.4350855082396 H 0.0 **** 0.06
963 H 116.21325498214334 37.94871899785312 117.86273556887136 H 0.0 **** 0.06
964 H 117.90720037680214 37.531106122778056 118.22175378532076 H 0.0 **** 0.06
965 H 117.44604273349528 39.23020005336997 117.95672572298952 H 0.0 **** 0.06
966 C 1.5673637726557672 51.43537452262029 116.4687242068166 C 0.0 **** -0.24
967 H 0.8445780468744744 50.70424263958236 116.83122677073266 H 0.0 **** 0.06
968 H 1.4417381159846911 52.370303549274155 117.01650805193532 H 0.0 **** 0.06
969 H 1.4033081616513812 51.611244417692035 115.4064118383489 H 0.0 **** 0.06
970 H 2.5770485514187556 51.055886186902484 116.6230366636276 H 0.0 **** 0.06
971 C 23.458875470436567 42.08659990863157 57.837568348733384 C 0.0 **** -0.24
972 H 22.560322728662356 42.560925227156304 57.44207418917364 H 0.0 **** 0.06
973 H 23.20432188066266 41.51623546289056 58.731587962293986 H 0.0 **** 0.06
974 H 24.1914423214874 42.85311007230621 58.091696552950225 H 0.0 **** 0.06
975 H 23.877032850050554 41.41852243912493 57.08568741335222 H 0.0 **** 0.06
976 C 86.19908209271736 112.6156376596973 122.54314069667396 C 0.0 **** -0.24
977 H 86.39477352171622 111.89821853336386 123.34016315433536 H 0.0 **** 0.06
978 H 86.82692729117076 112.3821858000829 121.6832844518363 H 0.0 **** 0.06
979 H 86.42614689825615 113.62152638425147 122.89702430034515 H 0.0 **** 0.06
980 H 85.14971587400984 112.5595640134602 122.25392381190858 H 0.0 **** 0.06
981 C 38.07427795474109 109.73256541889333 19.06972847060183 C 0.0 **** -0.24
982 H 37.157766636843434 109.20291969524786 18.807830405144927 H 0.0 **** 0.06
983 H 38.89705550914999 109.01999541491455 19.138925961166336 H 0.0 **** 0.06
984 H 37.94389426126486 110.23106715271123 20.029418084088363 H 0.0 **** 0.06
985 H 38.2984546846902 110.4734657401917 18.302456272987925 H 0.0 **** 0.06
986 C 10.114323300366465 78.67182291856557 15.432951421483434 C 0.0 **** -0.24
987 H 11.077529322745363 79.06841376777066 15.751694115352223 H 0.0 **** 0.06
988 H 9.773142216222709 79.21215784725115 14.549774329063649 H 0.0 **** 0.06
989 H 9.387164063715801 78.79190672966644 16.235846455923145 H 0.0 **** 0.06
990 H 10.21881782074459 77.61299894899344 15.192974526663281 H 0.0 **** 0.06
991 C 112.88117323977846 93.15100067637493 28.83934007227947 C 0.0 **** -0.24
992 H 113.9451851140035 93.03795823296196 28.634686234834703 H 0.0 **** 0.06
993 H 112.51227768922323 94.05673739123671 28.35823073492122 H 0.0 **** 0.06
994 H 112.72404955743752 93.22118562090438 29.91619587228797 H 0.0 **** 0.06
995 H 112.34173731782309 92.28718485856663 28.449675731484604 H 0.0 **** 0.06
996 C 75.03477473270402 95.18067999797074 93.77864633338328 C 0.0 **** -0.24
997 H 74.89477472175321 94.10000104717511 93.76435971886269 H 0.0 **** 0.06
998 H 74.98204779666565 95.56689536572628 92.76020794650617 H 0.0 **** 0.06
999 H 76.0099816843964 95.4146144302893 94.20611005445846 H 0.0 **** 0.06
1000 H 74.25319955739621 95.64071793226094 94.38293802538703 H 0.0 **** 0.06
1001 C 17.786871396621045 107.8175393713789 116.31225547321463 C 0.0 **** -0.24
1002 H 16.933946194645088 107.22215241089066 115.9864010597432 H 0.0 **** 0.06
1003 H 18.688885258811926 107.2053997962986 116.28475424250468 H 0.0 **** 0.06
1004 H 17.616971618775853 108.167603027355 117.33054602302082 H 0.0 **** 0.06
1005 H 17.90767125597574 108.67305176321153 115.6488023923859 H 0.0 **** 0.06
1006 C 87.71624397835643 113.05162038531633 28.330688549520772 C 0.0 **** -0.24
1007 H 88.28854915322574 113.4085172832209 29.18705677045031 H 0.0 **** 0.06
1008 H 86.93906998027819 113.77576862810471 28.08627081317516 H 0.0 **** 0.06
1009 H 87.25713834609707 112.09349399575908 28.57524323948806 H 0.0 **** 0.06
1010 H 88.38077866155703 112.92958071465684 27.475890297655297 H 0.0 **** 0.06
1011 C 32.2729365434418 103.96709875234194 106.35194536639878 C 0.0 **** -0.24
1012 H 31.44264041288841 104.07989398219544 107.04857702107344 H 0.0 **** 0.06
1013 H 32.36883726356547 104.8715772448264 105.75207472774252 H 0.0 **** 0.06
1014 H 32.08574956954021 103.11495330882934 105.69825022980672 H 0.0 **** 0.06
1015 H 33.19524699179232 103.80151354817446 106.9093905619944 H 0.0 **** 0.06
1016 C 108.0036968313392 103.06571034980391 41.909156183000704 C 0.0 **** -0.24
1017 H 108.81874135685294 102.58016797666036 41.373210188472044 H 0.0 **** 0.06
1018 H 108.03749810707984 102.77944637800275 42.960941146896346 H 0.0 **** 0.06
1019 H 107.05154701408193 102.75622984591996 41.47896246485256 H 0.0 **** 0.06
1020 H 108.10625709553423 104.14765565870326 41.82339552274294 H 0.0 **** 0.06
1021 C 94.63049197323204 73.98398666832975 77.49007719162648 C 0.0 **** -0.24
1022 H 93.63095859890512 73.65860296347529 77.7808188012799 H 0.0 **** 0.06
1023 H 95.31207532646886 73.85842138758807 78.33111737971274 H 0.0 **** 0.06
1024 H 94.59997937241184 75.0336483170723 77.19937032041003 H 0.0 **** 0.06
1025 H 94.97617871554945 73.38350512866015 76.64792234090078 H 0.0 **** 0.06
1026 C 33.163373570429826 2.7406189518304096 13.752668171242078 C 0.0 **** -0.24
1027 H 34.151153243817646 3.1574566875443963 13.9522648013982 H 0.0 **** 0.06
1028 H 32.91318314980276 2.014404170672437 14.526352215415017 H 0.0 **** 0.06
1029 H 33.16759575599281 2.2493563708402977 12.779922392362408 H 0.0 **** 0.06
1030 H 32.42485441666258 3.5415608244105723 13.751868470292862 H 0.0 **** 0.06
1031 C 59.89281237888553 4.8812728826339935 64.96730651535808 C 0.0 **** -0.24
1032 H 59.67314251060527 4.254097866868875 64.10323199039681 H 0.0 **** 0.06
1033 H 59.371244485629894 5.832866110265087 64.86711987446787 H 0.0 **** 0.06
1034 H 60.96731293886031 5.059552851240511 65.0211766526165 H 0.0 **** 0.06
1035 H 59.56189438504352 4.377702596735503 65.87491508050951 H 0.0 **** 0.06
1036 C 116.69266971919268 64.32750576547753 74.34287204094099 C 0.0 **** -0.24
1037 H 117.60073504831223 64.92888983340268 74.40394408247215 H 0.0 **** 0.06
1038 H 116.8571387298428 63.37094593960125 74.83986240931966 H 0.0 **** 0.06
1039 H 116.44039941594986 64.15571547906148 73.29705472753813 H 0.0 **** 0.06
1040 H 115.87495679439303 64.85575839718103 74.83231132392467 H 0.0 **** 0.06
1041 C 117.01251042832007 68.49415210883524 35.6529049416102 C 0.0 **** -0.24
1042 H 117.58871482472404 68.86231948334466 36.50136729820385 H 0.0 **** 0.06
1043 H 116.45157303169111 67.60784137683652 35.951201291577036 H 0.0 **** 0.06
1044 H 117.68900055178534 68.2393924371259 34.837582486049534 H 0.0 **** 0.06
1045 H 116.31956915392067 69.26778926138763 35.32171150794723 H 0.0 **** 0.06
1046 C 106.54015441519715 74.2413605510591 104.52925651901094 C 0.0 **** -0.24
1047 H 107.46534430652065 74.41430692543025 105.0787711519626 H 0.0 **** 0.06
1048 H 106.0538789825435 73.34299602337899 104.91110803023946 H 0.0 **** 0.06
1049 H 106.76486583622358 74.11159254086812 103.47080994766159 H 0.0 **** 0.06
1050 H 105.87642945264855 75.09688753166432 104.65727186968067 H 0.0 **** 0.06
1051 C 87.30279133689635 19.202208991628765 28.162664888294117 C 0.0 **** -0.24
1052 H 87.97213077988812 18.520136494821998 27.638459828994797 H 0.0 **** 0.06
1053 H 87.8407850868154 20.115975288050095 28.416272940693965 H 0.0 **** 0.06
1054 H 86.9414042475272 18.72740083013275 29.074069646121103 H 0.0 **** 0.06
1055 H 86.45671707523391 19.445225395360012 27.519863597212392 H 0.0 **** 0.06
1056 C 55.5655865778439 55.92668115319671 48.924094716486245 C 0.0 **** -0.24
1057 H 54.84740803389957 56.73993449052722 49.035372736367016 H 0.0 **** 0.06
1058 H 55.493234726323266 55.258767700223416 49.78249669884129 H 0.0 **** 0.06
1059 H 56.573033964745235 56.33760411284737 48.86634387595829 H 0.0 **** 0.06
1060 H 55.34662845668555 55.37124889518876 48.01178582504927 H 0.0 **** 0.06
1061 C 7.292038631646836 48.18118746567541 99.75727641224202 C 0.0 **** -0.24
1062 H 7.122701493216123 48.52207613589172 100.77898479247685 H 0.0 **** 0.06
1063 H 7.6425115861552655 47.14866974782905 99.77254265997735 H 0.0 **** 0.06
1064 H 8.042957879677495 48.81323570641064 99.2842749562478 H 0.0 **** 0.06
1065 H 6.359796899902118 48.23996026768509 99.19560815182095 H 0.0 **** 0.06
1066 C 79.8325200201817 5.312393934290103 57.96299743660045 C 0.0 **** -0.24
1067 H 78.8399081994936 5.683788399828295 58.215742361936755 H 0.0 **** 0.06
1068 H 79.84912756049746 5.004191870675353 56.91713422283387 H 0.0 **** 0.06
1069 H 80.07415128459729 4.459908450168118 58.59708489856818 H 0.0 **** 0.06
1070 H 80.56750461296858 6.102041395487316 58.12080331382676 H 0.0 **** 0.06
1071 C 16.196488752098105 22.689671278984207 24.59096063783516 C 0.0 **** -0.24
1072 H 16.142599304095313 23.599278041142924 23.99178565391078 H 0.0 **** 0.06
1073 H 17.003585537299614 22.0584358784416 24.21888566056427 H 0.0 **** 0.06
1074 H 15.25050685465078 22.152048460596035 24.519447451417854 H 0.0 **** 0.06
1075 H 16.3882235073375 22.951079907264898 25.631429002470348 H 0.0 **** 0.06
1076 C 8.936598787728087 1.2317813797166082 120.82599428003158 C 0.0 **** -0.24
1077 H 8.263215166717515 0.4421492731794814 120.49429154784076 H 0.0 **** 0.06
1078 H 8.487248232837658 1.763629856212333 121.66390318760818 H 0.0 **** 0.06
1079 H 9.113277986110973 1.9271497146752807 120.00500310688636 H 0.0 **** 0.06
1080 H 9.88436807383755 0.7923926201568463 121.13943503889823 H 0.0 **** 0.06
1081 C 78.22562050860955 81.81338438317914 108.18183796287724 C 0.0 **** -0.24
1082 H 77.96602222243962 81.77689986526701 107.12423090364894 H 0.0 **** 0.06
1083 H 79.28814331004693 82.0350631526531 108.28724673956401 H 0.0 **** 0.06
1084 H 78.0070857991974 80.85101888094562 108.64372572229036 H 0.0 **** 0.06
1085 H 77.64154709540207 82.592766443436 108.67226026696346 H 0.0 **** 0.06
1086 C 47.92038087287406 12.901219400295531 76.99563716866447 C 0.0 **** -0.24
1087 H 48.93723645525901 12.524069725499942 77.10173119573108 H 0.0 **** 0.06
1088 H 47.71923678701816 13.627813997842281 77.78291442752732 H 0.0 **** 0.06
1089 H 47.21595829158076 12.072935293611579 77.07642351088685 H 0.0 **** 0.06
1090 H 47.809584871621325 13.378799687517926 76.02189466242504 H 0.0 **** 0.06
1091 C 1.8726494550923576 62.261574151085 74.46622421292881 C 0.0 **** -0.24
1092 H 1.5578356523439538 63.29887118937856 74.35262735027152 H 0.0 **** 0.06
1093 H 2.4540808775506093 62.15630332523301 75.3824581964945 H 0.0 **** 0.06
1094 H 2.484616024160033 61.97272962903216 73.61118214306447 H 0.0 **** 0.06
1095 H 0.9938839470923142 61.61890103987864 74.51623985141333 H 0.0 **** 0.06
1096 C 118.55817708124749 105.48705409814852 98.49644364705875 C 0.0 **** -0.24
1097 H 119.07554596269001 106.39798212579302 98.79853921568079 H 0.0 **** 0.06
1098 H 118.99614419729014 105.11054930021257 97.57129330907645 H 0.0 **** 0.06
1099 H 117.50213096818482 105.70632887681498 98.33693081309298 H 0.0 **** 0.06
1100 H 118.65891882739669 104.73502855599494 99.27856178043743 H 0.0 **** 0.06
1101 C 70.45590884331017 103.52463718859474 118.79558638279153 C 0.0 **** -0.24
1102 H 69.70465342050653 103.2299395850527 119.52796860142533 H 0.0 **** 0.06
1103 H 70.74507077038999 104.56110306622776 118.96884625123144 H 0.0 **** 0.06
1104 H 70.04224991758434 103.42475990839023 117.79232872692117 H 0.0 **** 0.06
1105 H 71.3303476991631 102.88130805992458 118.89430040144106 H 0.0 **** 0.06
1106 C 34.45753777367382 98.39154483739179 100.50312737657111 C 0.0 **** -0.24
1107 H 34.11574693341921 98.80234837501831 99.5530139018257 H 0.0 **** 0.06
1108 H 35.22115383065265 97.63588250291872 100.31912445060937 H 0.0 **** 0.06
1109 H 33.61553354810619 97.93775229588707 101.02652147625372 H 0.0 **** 0.06
1110 H 34.87694035394265 99.19100975451681 101.11516702919457 H 0.0 **** 0.06
1111 C 91.17168512581486 31.213638292360997 111.14901425528205 C 0.0 **** -0.24
1112 H 91.7841009368554 31.864201228098068 111.77413018307709 H 0.0 **** 0.06
1113 H 90.40315428564637 30.74019989193215 111.76164764418121 H 0.0 **** 0.06
1114 H 91.80095464345209 30.446500899399467 110.69845550312903 H 0.0 **** 0.06
1115 H 90.6983812152416 31.80299782657528 110.36395702612072 H 0.0 **** 0.06
1116 C 77.72917078445718 100.0691731147864 101.85923856399046 C 0.0 **** -0.24
1117 H 76.84241042304572 100.38215268982509 101.30859626356039 H 0.0 **** 0.06
1118 H 77.42878844831745 99.61702687464688 102.80524408284535 H 0.0 **** 0.06
1119 H 78.36082232407506 100.9361219216751 102.0545646071252 H 0.0 **** 0.06
1120 H 78.28499959011884 99.34001819764183 101.26858921678692 H 0.0 **** 0.06
1121 C 58.927632818025955 120.09838077087839 55.853495154660436 C 0.0 **** -0.24
1122 H 58.63427927925116 121.14167440427937 55.97167402823894 H 0.0 **** 0.06
1123 H 58.51765826272157 119.51116654282303 56.67553193829329 H 0.0 **** 0.06
1124 H 60.01476658194099 120.02334863281129 55.86001090396314 H 0.0 **** 0.06
1125 H 58.541810601270214 119.71783100692593 54.90806234852249 H 0.0 **** 0.06
1126 C 77.55347168832287 20.851230750305945 5.564042439998644 C 0.0 **** -0.24
1127 H 77.35895434717261 20.610750302365616 6.609322927287291 H 0.0 **** 0.06
1128 H 77.99048142701415 19.983559416533296 5.0674981810134625 H 0.0 **** 0.06
1129 H 78.2467440967809 21.690518052498348 5.506541708014733 H 0.0 **** 0.06
1130 H 76.61781565583559 21.117678344996136 5.073190571120655 H 0.0 **** 0.06
1131 C 24.62538696375205 25.94485772206849 3.1907886074995986 C 0.0 **** -0.24
1132 H 24.174225146942376 26.09222084769931 2.21029425691043 H 0.0 **** 0.06
1133 H 24.56791990125768 26.872928175101606 3.760671903796606 H 0.0 **** 0.06
1134 H 25.670389594243858 25.656156709532468 3.070304349055391 H 0.0 **** 0.06
1135 H 24.090649659532687 25.157660184463452 3.722209511748133 H 0.0 **** 0.06
1136 C 70.83735214214485 60.14543434213266 4.458601330595588 C 0.0 **** -0.24
1137 H 70.18814958765824 61.02099928206155 4.454832012092455 H 0.0 **** 0.06
1138 H 71.86359177098555 60.4535728527195 4.259337696021436 H 0.0 **** 0.06
1139 H 70.51042374880043 59.44743567443305 3.6870101895580962 H 0.0 **** 0.06
1140 H 70.78567501449888 59.65894851379858 5.432260973728077 H 0.0 **** 0.06
1141 C 69.05255040235826 24.52478011706208 47.48237800685148 C 0.0 **** -0.24
1142 H 69.44507367012386 23.538369330920148 47.23521130552213 H 0.0 **** 0.06
1143 H 68.70521113387608 24.52836866355119 48.51574324055054 H 0.0 **** 0.06
1144 H 68.22117681104379 24.761858803118713 46.81808378793831 H 0.0 **** 0.06
1145 H 69.83906856323557 25.269221221434947 47.36003122321639 H 0.0 **** 0.06
1146 C 78.44306467378078 36.79283461126059 70.52706543766988 C 0.0 **** -0.24
1147 H 79.18720237523064 37.03338063323815 71.28729823272997 H 0.0 **** 0.06
1148 H 77.49585816699516 36.55233697817502 71.00980019860731 H 0.0 **** 0.06
1149 H 78.78301049663969 35.93736653057121 69.94445299485625 H 0.0 **** 0.06
1150 H 78.30872422920208 37.65042482737641 69.86807243516242 H 0.0 **** 0.06
1151 C 119.41143115154468 91.55980408323774 45.81714880959768 C 0.0 **** -0.24
1152 H 119.3837442575932 91.72626070914828 46.89423598523257 H 0.0 **** 0.06
1153 H 120.11750734894866 90.76007466622877 45.591830289755336 H 0.0 **** 0.06
1154 H 119.72479750047569 92.47509571014939 45.315534546665134 H 0.0 **** 0.06
1155 H 118.41802539117529 91.27676629384166 45.46810759037399 H 0.0 **** 0.06
1156 C 99.89811121237727 11.073031884375311 54.367663230439774 C 0.0 **** -0.24
1157 H 100.20203201368733 10.126024614661286 54.814579948133115 H 0.0 **** 0.06
1158 H 99.60332449428032 11.76860981869915 55.153838971652505 H 0.0 **** 0.06
1159 H 99.05555824544399 10.90398244045728 53.69654553928078 H 0.0 **** 0.06
1160 H 100.73187488269153 11.493711276944996 53.804771439145384 H 0.0 **** 0.06
1161 C 9.205042492276988 121.83900928562396 35.73065809141562 C 0.0 **** -0.24
1162 H 8.323942957249159 121.90771525196983 36.36899910750614 H 0.0 **** 0.06
1163 H 9.392757303698176 120.79477934698795 35.48113033016327 H 0.0 **** 0.06
1164 H 10.067614171009893 122.24813452253863 36.25592918838365 H 0.0 **** 0.06
1165 H 9.034804622813425 122.40704871543488 34.81508914040421 H 0.0 **** 0.06
1166 C 3.3975044443005054 114.97561957317382 29.40755235112806 C 0.0 **** -0.24
1167 H 4.305860050823977 115.03077044991318 30.007935254221707 H 0.0 **** 0.06
1168 H 2.6171002119247007 114.46962814140076 29.974666056473097 H 0.0 **** 0.06
1169 H 3.6014041883229115 114.4201584213134 28.49268740156782 H 0.0 **** 0.06
1170 H 3.0689872100193973 115.98326444954785 29.155206764923435 H 0.0 **** 0.06
1171 C 78.67279165770904 89.85590693352651 60.6993802310023 C 0.0 **** -0.24
1172 H 79.00354857841396 88.8192142841674 60.772424157883 H 0.0 **** 0.06
1173 H 79.2298784383396 90.46482897522208 61.410359353595375 H 0.0 **** 0.06
1174 H 77.608243683659 89.91334089766227 60.92739361834203 H 0.0 **** 0.06
1175 H 78.84835214191912 90.22278826182284 59.68821173645912 H 0.0 **** 0.06
1176 C 79.13326461521402 71.72530113426978 116.32482936169095 C 0.0 **** -0.24
1177 H 78.88613737918749 70.66385993691668 116.29218152174045 H 0.0 **** 0.06
1178 H 78.27327165917131 72.30902148129198 115.995647294751 H 0.0 **** 0.06
1179 H 79.97861059969728 71.92118838733413 115.66644544040332 H 0.0 **** 0.06
1180 H 79.3945707940793 72.0062602279734 117.3449157210584 H 0.0 **** 0.06
1181 C 62.76415120111585 95.1166156660035 105.41141143389845 C 0.0 **** -0.24
1182 H 62.91834546651137 95.32133306691838 106.47155959652167 H 0.0 **** 0.06
1183 H 63.72976890932125 95.02882684795722 104.91482345838176 H 0.0 **** 0.06
1184 H 62.19675107922217 95.93218425675391 104.96329080983935 H 0.0 **** 0.06
1185 H 62.21070163508921 94.18436464737388 105.29877598527045 H 0.0 **** 0.06
1186 C 74.63250860726785 55.42747352843378 79.11377459160798 C 0.0 **** -0.24
1187 H 74.28771406929044 56.10534532243898 79.89437670923112 H 0.0 **** 0.06
1188 H 73.782238036933 54.877398831076704 78.70989596539252 H 0.0 **** 0.06
1189 H 75.35322053451259 54.7266978324447 79.5348836708703 H 0.0 **** 0.06
1190 H 75.10590143452222 56.00250333256534 78.31763634226553 H 0.0 **** 0.06
1191 C 75.6033744239923 121.68883105119866 27.24445201911297 C 0.0 **** -0.24
1192 H 75.84901417547596 120.98236697456342 26.451251680250436 H 0.0 **** 0.06
1193 H 75.15574586566481 121.15260927621786 28.08136421488615 H 0.0 **** 0.06
1194 H 74.89801751721524 122.42814881679696 26.866440188657947 H 0.0 **** 0.06
1195 H 76.51174266852126 122.18993638377651 27.577397436378106 H 0.0 **** 0.06
1196 C 8.305000149251896 83.85723762577328 43.71548327834086 C 0.0 **** -0.24
1197 H 7.958861229383956 84.77711201227788 43.2440852558621 H 0.0 **** 0.06
1198 H 7.455247809673978 83.19983925515652 43.898438058972 H 0.0 **** 0.06
1199 H 8.791355738490296 84.0954773431232 44.66167947046683 H 0.0 **** 0.06
1200 H 9.015869589417804 83.35800944764617 43.05763834904497 H 0.0 **** 0.06
1201 C 96.67738884706097 95.83605789279554 35.78183319762246 C 0.0 **** -0.24
1202 H 95.93133515052668 95.75811669488036 36.57353532368785 H 0.0 **** 0.06
1203 H 97.25368605594483 96.75142239648463 35.91714207982159 H 0.0 **** 0.06
1204 H 96.17802936957708 95.861105383573 34.81364735602591 H 0.0 **** 0.06
1205 H 97.34507783362406 94.97592004523571 35.82535788302931 H 0.0 **** 0.06
1206 C 10.389409754675825 70.12041050697007 31.704436748892917 C 0.0 **** -0.24
1207 H 9.930873867125484 71.10812129659453 31.75754414370786 H 0.0 **** 0.06
1208 H 9.930055063315649 69.55046949402458 30.896870879860415 H 0.0 **** 0.06
1209 H 10.23789685702107 69.59894415544261 32.6491042932802 H 0.0 **** 0.06
1210 H 11.457173569910594 70.22558835200573 31.514570647622804 H 0.0 **** 0.06
1211 C 26.40324867366926 16.741710822088564 101.61590757878938 C 0.0 **** -0.24
1212 H 27.039188033555 17.30764858276298 102.29633662553195 H 0.0 **** 0.06
1213 H 26.383201110597675 17.235097792332244 100.64318118911208 H 0.0 **** 0.06
1214 H 25.39185776453484 16.69324318368722 102.01963948841183 H 0.0 **** 0.06
1215 H 26.79831721924708 15.732179006783998 101.50303827336563 H 0.0 **** 0.06
1216 C 72.79167593019105 97.49375481245903 7.451905432101626 C 0.0 **** -0.24
1217 H 71.88116402372174 98.00590638149609 7.763289404288685 H 0.0 **** 0.06
1218 H 73.24886842574927 98.03785105663354 6.625313368070721 H 0.0 **** 0.06
1219 H 72.54774593729252 96.48129378456812 7.13138568123216 H 0.0 **** 0.06
1220 H 73.48858547981806 97.45186965828373 8.289928661293146 H 0.0 **** 0.06
1221 C 33.261226019207186 61.70327880352075 61.584615868887006 C 0.0 **** -0.24
1222 H 33.77373098085911 60.74877429892533 61.706414762239184 H 0.0 **** 0.06
1223 H 32.64681473619737 61.67253839702219 60.68550249328356 H 0.0 **** 0.06
1224 H 33.997896721415884 62.50140526350118 61.49592805099095 H 0.0 **** 0.06
1225 H 32.6271071796441 61.887794174685986 62.452569543810334 H 0.0 **** 0.06
1226 C 8.829087832039193 107.77069319527982 48.465687207409765 C 0.0 **** -0.24
1227 H 8.882158647244239 106.82732931207298 47.92162449232918 H 0.0 **** 0.06
1228 H 8.560362620356557 107.57674273913557 49.504130809849244 H 0.0 **** 0.06
1229 H 8.075856383549507 108.41122318208923 48.00721710476075 H 0.0 **** 0.06
1230 H 9.799977615997904 108.26670880771448 48.427453961981016 H 0.0 **** 0.06
1231 C 98.75294001995016 7.458923584984291 24.763850874803076 C 0.0 **** -0.24
1232 H 98.38488533245754 6.630165752933834 24.159135796964677 H 0.0 **** 0.06
1233 H 99.82272758179988 7.336404038479287 24.934143804908096 H 0.0 **** 0.06
1234 H 98.23124803519795 7.468850666023798 25.72080074303674 H 0.0 **** 0.06
1235 H 98.5722030687246 8.398198385960512 24.240866984765596 H 0.0 **** 0.06
1236 C 85.40618958090056 36.027603876876384 117.70560303943356 C 0.0 **** -0.24
1237 H 84.85462577729481 36.52362353140555 118.50484834270488 H 0.0 **** 0.06
1238 H 84.83217210335098 35.17451994776374 117.34352033012838 H 0.0 **** 0.06
1239 H 86.36772294792445 35.68348058072141 118.086218140797 H 0.0 **** 0.06
1240 H 85.56924044688253 36.72978180055074 116.88798411241021 H 0.0 **** 0.06
1241 C 12.919996228156009 72.6862591315377 120.38132454711617 C 0.0 **** -0.24
1242 H 13.354451952587283 73.67055014042145 120.55698496123829 H 0.0 **** 0.06
1243 H 13.358245608054517 72.25219530486737 119.48169779166454 H 0.0 **** 0.06
1244 H 11.84227883009737 72.78270530278976 120.25047171460471 H 0.0 **** 0.06
1245 H 13.126313568638892 72.04045366208447 121.23454875743906 H 0.0 **** 0.06
1246 C 89.00719797634213 20.394466844560185 100.2222488233613 C 0.0 **** -0.24
1247 H 89.76582577011413 19.765247544247785 99.75617361190075 H 0.0 **** 0.06
1248 H 88.01687979738702 20.053496329992264 99.92050864014527 H 0.0 **** 0.06
1249 H 89.14872396849736 21.428288111018446 99.9065858202425 H 0.0 **** 0.06
1250 H 89.0995137848899 20.330566746599143 101.30627450416688 H 0.0 **** 0.06
1251 C 47.6286557673175 41.75838311458142 67.53672847867153 C 0.0 **** -0.24
1252 H 47.65844306108477 42.83643642254384 67.37736432764268 H 0.0 **** 0.06
1253 H 46.92586411001761 41.52863939622756 68.33823761511178 H 0.0 **** 0.06
1254 H 48.62225984721533 41.40388464286224 67.81120416717602 H 0.0 **** 0.06
1255 H 47.30820230564029 41.264541880341426 66.61870145704029 H 0.0 **** 0.06
1256 C 102.7224833831196 55.53365946686444 85.15425352058443 C 0.0 **** -0.24
1257 H 101.92676964128688 55.54204084402702 84.40936056025734 H 0.0 **** 0.06
1258 H 102.30688311764445 55.77831514889399 86.1320925572897 H 0.0 **** 0.06
1259 H 103.47909630185123 56.26993718088173 84.88547093865557 H 0.0 **** 0.06
1260 H 103.17617731577906 54.54226897767365 85.18926699873563 H 0.0 **** 0.06
1261 C 20.223862086867577 2.593678161861476 67.5511231813166 C 0.0 **** -0.24
1262 H 20.801800687883542 2.7800227521749576 68.45672675801819 H 0.0 **** 0.06
1263 H 20.815182077230908 1.9912062849128915 66.86052596403277 H 0.0 **** 0.06
1264 H 19.9708878536627 3.5440272483523927 67.0799248784354 H 0.0 **** 0.06
1265 H 19.308297730771063 2.0601285551569077 67.80714247183917 H 0.0 **** 0.06
1266 C 68.91816022755438 2.0894880885281566 64.28806332247828 C 0.0 **** -0.24
1267 H 68.9475786420117 3.029204821740109 64.84054789862017 H 0.0 **** 0.06
1268 H 67.88116176581025 1.7949579886839047 64.12888008339641 H 0.0 **** 0.06
1269 H 69.43337906781983 1.3163506976245856 64.85928685812306 H 0.0 **** 0.06
1270 H 69.41229837369224 2.2192177632860535 63.32517504436507 H 0.0 **** 0.06
1271 C 103.5735730017065 13.684133110337768 88.80023546330574 C 0.0 **** -0.24
1272 H 104.07317085933877 13.558781501005626 89.7606244777565 H 0.0 **** 0.06
1273 H 102.70855740884426 13.022426380662921 88.75332737679855 H 0.0 **** 0.06
1274 H 104.26542257244108 13.43585085282325 87.99501049241545 H 0.0 **** 0.06
1275 H 103.24701186750755 14.718442735101007 88.69293892816466 H 0.0 **** 0.06
1276 C 115.57888545089025 116.59428439255814 67.13094590136103 C 0.0 **** -0.24
1277 H 115.62144764563692 117.38151456896765 66.37954379245548 H 0.0 **** 0.06
1278 H 116.59121481713134 116.28009177006241 67.38627003576025 H 0.0 **** 0.06
1279 H 115.02339441003454 115.74311822050623 66.7358078993459 H 0.0 **** 0.06
1280 H 115.07931064116252 116.97066491971319 68.02354538045327 H 0.0 **** 0.06
1281 C 95.61985981489937 71.5354314788014 57.25478229651753 C 0.0 **** -0.24
1282 H 95.84733494893422 72.53893540415311 56.89518938413849 H 0.0 **** 0.06
1283 H 96.47578045745979 70.88390706424997 57.07744943474273 H 0.0 **** 0.06
1284 H 94.75110986347974 71.14741361473233 56.722276118483876 H 0.0 **** 0.06
1285 H 95.40567952417479 71.57205628264393 58.322107205346754 H 0.0 **** 0.06
1286 C 64.41846654439351 7.4379754751869385 37.11101364108282 C 0.0 **** -0.24
1287 H 65.13068597621952 8.262922528148799 37.133216797175095 H 0.0 **** 0.06
1288 H 64.32895164659226 7.062723585132552 36.090760083096285 H 0.0 **** 0.06
1289 H 63.446426135327904 7.78776339603068 37.45706843379358 H 0.0 **** 0.06
1290 H 64.77016311042118 6.637839970039508 37.76305189251528 H 0.0 **** 0.06
1291 C 31.121987864292038 85.34497224977278 102.11645634396166 C 0.0 **** -0.24
1292 H 31.25565910268307 84.26830849976056 102.0083576156843 H 0.0 **** 0.06
1293 H 31.961261149170213 85.86333269480758 101.65092651070293 H 0.0 **** 0.06
1294 H 31.077236235436175 85.60165585235714 103.17480503073963 H 0.0 **** 0.06
1295 H 30.19432875956136 85.64561596592881 101.6295538224646 H 0.0 **** 0.06
1296 C 108.68184161681012 121.18238615176787 120.44659100319362 C 0.0 **** -0.24
1297 H 108.63713590509434 121.49482291691515 121.49013535967693 H 0.0 **** 0.06
1298 H 109.48026569613918 120.45150875777833 120.32083600799507 H 0.0 **** 0.06
1299 H 108.87848936562742 122.04903381926579 119.8154368124282 H 0.0 **** 0.06
1300 H 107.72977785368033 120.73445260288742 120.16138533515422 H 0.0 **** 0.06
1301 C 46.73670886771667 102.67664571341331 121.85184149916117 C 0.0 **** -0.24
1302 H 46.74839789046166 102.0252537053878 122.72562347361504 H 0.0 **** 0.06
1303 H 45.83230291617937 103.28530787997065 121.86613835142586 H 0.0 **** 0.06
1304 H 46.75438643439561 102.0706715941252 120.94675259655503 H 0.0 **** 0.06
1305 H 47.61273751316012 103.32550764735882 121.87231525612194 H 0.0 **** 0.06
1306 C 101.2568487028121 98.85423336026389 60.003888363597035 C 0.0 **** -0.24
1307 H 101.44497005414783 97.8773822267884 59.559133023914846 H 0.0 **** 0.06
1308 H 100.81958144754509 99.51619683172501 59.25647292697089 H 0.0 **** 0.06
1309 H 102.19723145159617 99.27800011909784 60.35937151292227 H 0.0 **** 0.06
1310 H 100.56799277984919 98.74529211899946 60.841148426600775 H 0.0 **** 0.06
1311 C 14.012839170347348 100.53842108309223 25.192495686766136 C 0.0 **** -0.24
1312 H 13.708539029754348 100.82230028767188 26.199859148100387 H 0.0 **** 0.06
1313 H 14.999221222564671 100.07541785805364 25.227044388034756 H 0.0 **** 0.06
1314 H 14.05086709912402 101.42681913063385 24.561070325514237 H 0.0 **** 0.06
1315 H 13.293748969307615 99.83092160301055 24.781107998726384 H 0.0 **** 0.06
1316 C 120.52594732969743 33.395009598088166 105.34160228816245 C 0.0 **** -0.24
1317 H 119.5319654808215 32.974707282343104 105.49963159390549 H 0.0 **** 0.06
1318 H 121.2403873402554 32.58608430411613 105.18564548282578 H 0.0 **** 0.06
1319 H 120.81813283120252 33.9749680568932 106.21730656164323 H 0.0 **** 0.06
1320 H 120.51073392215162 34.042023112299375 104.46438155829875 H 0.0 **** 0.06
1321 C 77.12569551038115 121.7541887667187 71.5629565996199 C 0.0 **** -0.24
1322 H 76.79401385963513 122.09748314911583 70.58333812998052 H 0.0 **** 0.06
1323 H 76.33538716722353 121.92556490529971 72.29481119758708 H 0.0 **** 0.06
1324 H 78.01975084874346 122.30563549334704 71.85774264506591 H 0.0 **** 0.06
1325 H 77.35449878770476 120.6903133512933 71.5164034872991 H 0.0 **** 0.06
1326 C 64.51291405698058 120.99362535659657 62.73812765692148 C 0.0 **** -0.24
1327 H 63.54417516302931 121.22163063571654 63.182309665717554 H 0.0 **** 0.06
1328 H 65.01720227867605 121.92314634548687 62.471588129376755 H 0.0 **** 0.06
1329 H 64.36821239155213 120.38827399295508 61.84301073011008 H 0.0 **** 0.06
1330 H 65.12035207980159 120.44318237621148 63.455850895244055 H 0.0 **** 0.06
1331 C 3.028544501127234 11.046308975888962 83.20192081999525 C 0.0 **** -0.24
1332 H 2.4974826822174148 10.675917182777539 82.32571460608497 H 0.0 **** 0.06
1333 H 2.5918251993346306 11.994415725777614 83.51640610620188 H 0.0 **** 0.06
1334 H 4.078997850674877 11.193831818520039 82.95532036393311 H 0.0 **** 0.06
1335 H 2.9439146583998053 10.320923954894212 84.01131288205349 H 0.0 **** 0.06
1336 C 8.122990281236582 87.8169495629896 107.40410933647786 C 0.0 **** -0.24
1337 H 8.549943122104821 86.83172376016003 107.22137066840739 H 0.0 **** 0.06
1338 H 8.807085343306085 88.58251548155343 107.03778310352115 H 0.0 **** 0.06
1339 H 7.96558918714112 87.95251778853088 108.47412862626459 H 0.0 **** 0.06
1340 H 7.169723095863674 87.90240294651102 106.88319621420999 H 0.0 **** 0.06
1341 C 120.07114306661674 26.41309560054942 100.64899656483544 C 0.0 **** -0.24
1342 H 119.108183707482 26.622789092390278 101.11587139200924 H 0.0 **** 0.06
1343 H 119.93762633887852 25.678210587771332 99.85558343744617 H 0.0 **** 0.06
1344 H 120.75961314498232 26.019972608636515 101.39836663649399 H 0.0 **** 0.06
1345 H 120.47873853817069 27.33259605359843 100.228015545555 H 0.0 **** 0.06
1346 C 53.876359266589105 61.290391806312385 102.42626565497869 C 0.0 **** -0.24
1347 H 54.559130904469356 60.95965766251905 103.20889324447901 H 0.0 **** 0.06
1348 H 52.851610065505156 61.25044384177343 102.79700197981992 H 0.0 **** 0.06
1349 H 53.974638028732414 60.6372429535497 101.55940178526856 H 0.0 **** 0.06
1350 H 54.11953310880574 62.31347370360257 102.13936141077818 H 0.0 **** 0.06
1351 C 87.3681866219367 30.58950269719064 15.963628038958575 C 0.0 **** -0.24
1352 H 87.98481466470301 31.145929475754336 16.66920808601833 H 0.0 **** 0.06
1353 H 87.97152257413018 30.306025143094466 15.09966884759558 H 0.0 **** 0.06
1354 H 86.53652164778177 31.213364830767212 15.637060273257816 H 0.0 **** 0.06
1355 H 86.98160074084265 29.691813024250763 16.4470603370483 H 0.0 **** 0.06
1356 C 31.823048885703002 122.3219458823299 39.594131807607994 C 0.0 **** -0.24
1357 H 30.774432744864754 122.58485434705582 39.45449490796284 H 0.0 **** 0.06
1358 H 31.93129782987515 121.73622719266953 40.50697785711577 H 0.0 **** 0.06
1359 H 32.417838757832214 123.23167123248298 39.67376159424191 H 0.0 **** 0.06
1360 H 32.16674011471761 121.73604613440573 38.741934689577306 H 0.0 **** 0.06
1361 C 19.193617629329424 57.79715085201917 34.76002121529862 C 0.0 **** -0.24
1362 H 18.30252656898932 57.63086680627623 35.364598272090596 H 0.0 **** 0.06
1363 H 19.17542971013131 58.80995179124497 34.357575462670255 H 0.0 **** 0.06
1364 H 19.21516728582236 57.07913803609969 33.93927982957066 H 0.0 **** 0.06
1365 H 20.081568206871566 57.66777880831643 35.379075973027064 H 0.0 **** 0.06
1366 C 109.8667058174513 11.91338739664728 54.40835171845711 C 0.0 **** -0.24
1367 H 110.93201526872528 12.02107257511544 54.2052980735651 H 0.0 **** 0.06
1368 H 109.34099032666606 11.693964826893435 53.47851240727391 H 0.0 **** 0.06
1369 H 109.48217621295294 12.839887223831749 54.832896290428806 H 0.0 **** 0.06
1370 H 109.71245481851463 11.098383457629915 55.11440217729597 H 0.0 **** 0.06
1371 C 8.976269214221958 94.30468515483608 91.69731642222163 C 0.0 **** -0.24
1372 H 9.382815001105087 95.1961764088444 91.22008170127697 H 0.0 **** 0.06
1373 H 8.171695592778974 94.5908111976712 92.37526136403918 H 0.0 **** 0.06
1374 H 9.76343344436657 93.80223437105673 92.25772583035166 H 0.0 **** 0.06
1375 H 8.586485416242994 93.63043537632456 90.93426269233925 H 0.0 **** 0.06
1376 C 25.98509300755947 59.14058114100231 37.33240216190745 C 0.0 **** -0.24
1377 H 25.459143052336117 58.897619891159145 36.40938451436682 H 0.0 **** 0.06
1378 H 27.032122465595137 59.34759906748304 37.10961289384804 H 0.0 **** 0.06
1379 H 25.919286674115455 58.298391453922385 38.02112720024448 H 0.0 **** 0.06
1380 H 25.529731097703603 60.020056901240956 37.78839348192898 H 0.0 **** 0.06
1381 C 26.954359442961675 54.126221234211414 24.297006731454523 C 0.0 **** -0.24
1382 H 26.12658914302446 53.74811351943612 24.895960777772956 H 0.0 **** 0.06
1383 H 27.562523363131646 53.29060485596986 23.948789680653668 H 0.0 **** 0.06
1384 H 27.56716830763054 54.792026083193434 24.9048713053933 H 0.0 **** 0.06
1385 H 26.563008955484662 54.67390216700676 23.439635443106432 H 0.0 **** 0.06
1386 C 44.37152324238082 72.19213399671236 90.80686221530954 C 0.0 **** -0.24
1387 H 43.50440800436843 72.68994280488712 90.37362596992239 H 0.0 **** 0.06
1388 H 44.99227008865455 71.78309412641164 90.00952672622913 H 0.0 **** 0.06
1389 H 44.03825471495668 71.38440986537222 91.458843788064 H 0.0 **** 0.06
1390 H 44.95114269274973 72.91049503374563 91.38625657142552 H 0.0 **** 0.06
1391 C 24.109951572191704 43.36461622472268 47.95369809804663 C 0.0 **** -0.24
1392 H 24.922143377450027 43.32464413436111 48.67966699731005 H 0.0 **** 0.06
1393 H 23.18767257425219 43.65796993439443 48.45588951750375 H 0.0 **** 0.06
1394 H 23.980912163565705 42.382824216070446 47.49813645355988 H 0.0 **** 0.06
1395 H 24.350620124025056 44.094523038854845 47.18048024715483 H 0.0 **** 0.06
1396 C 85.5586759735065 74.56794738654438 60.393757398575985 C 0.0 **** -0.24
1397 H 86.44462488621323 75.195464317089 60.48833608894989 H 0.0 **** 0.06
1398 H 85.77993049048337 73.72279730333156 59.74193771138454 H 0.0 **** 0.06
1399 H 84.74334857570875 75.15287093508454 59.967487726200886 H 0.0 **** 0.06
1400 H 85.26616869388351 74.20116504822118 61.37785412193318 H 0.0 **** 0.06
1401 C 81.20144307043898 77.66085629876594 14.127078811128825 C 0.0 **** -0.24
1402 H 81.0184557525825 76.9830477398209 14.961863466651948 H 0.0 **** 0.06
1403 H 81.25115675132741 77.08884375298894 13.199591653965257 H 0.0 **** 0.06
1404 H 82.14411182591883 78.18382661628578 14.284182984497875 H 0.0 **** 0.06
1405 H 80.38945839418267 78.38592810276845 14.06470942597906 H 0.0 **** 0.06
1406 C 32.1059843528289 76.52002028310554 67.03330174746006 C 0.0 **** -0.24
1407 H 32.63399645805066 76.68726119996805 66.09471674883758 H 0.0 **** 0.06
1408 H 31.112402234848332 76.12287915773072 66.82470728643202 H 0.0 **** 0.06
1409 H 32.0143570237785 77.46373723111662 67.57182280907952 H 0.0 **** 0.06
1410 H 32.66315582625586 75.80761753297088 67.64195141447624 H 0.0 **** 0.06
1411 C 3.284616306362807 65.34489464219553 91.75168873632353 C 0.0 **** -0.24
1412 H 3.587465498336755 65.42566024669006 92.79599350636502 H 0.0 **** 0.06
1413 H 2.3300883926839475 64.82201068652236 91.6900285962843 H 0.0 **** 0.06
1414 H 4.041186535272416 64.78946978601442 91.1963618841854 H 0.0 **** 0.06
1415 H 3.1817089128180243 66.34282872543588 91.32532531025132 H 0.0 **** 0.06
1416 C 49.43499021155509 50.22913219555166 86.82822381188197 C 0.0 **** -0.24
1417 H 50.385118716155716 50.73506156639891 86.99618023378497 H 0.0 **** 0.06
1418 H 49.608383079031285 49.302770577374304 86.28074852845586 H 0.0 **** 0.06
1419 H 48.776418080127655 50.876459478461726 86.24803906901366 H 0.0 **** 0.06
1420 H 48.96928252032376 50.00311838406192 87.78712224042724 H 0.0 **** 0.06
1421 C 104.94622600762969 37.735211043984606 98.85412476975787 C 0.0 **** -0.24
1422 H 105.62787889595097 37.14914848674994 99.47077228908694 H 0.0 **** 0.06
1423 H 104.83846763497479 37.25918113564856 97.87908229152904 H 0.0 **** 0.06
1424 H 105.3477087506943 38.73999556189517 98.72565390451635 H 0.0 **** 0.06
1425 H 103.97358293669757 37.792190796130484 99.34218097440493 H 0.0 **** 0.06
1426 C 113.83622653573427 29.876490224259726 33.02683268080841 C 0.0 **** -0.24
1427 H 114.66182828276422 30.02792645246066 33.72209518104228 H 0.0 **** 0.06
1428 H 113.10294827339028 30.67472475856448 33.15286003958718 H 0.0 **** 0.06
1429 H 113.3645228688526 28.914876588073042 33.22636947998845 H 0.0 **** 0.06
1430 H 114.21488087128441 29.889539299894068 32.004203318480535 H 0.0 **** 0.06
1431 C 64.71049424253428 28.165656277865423 104.04901960593412 C 0.0 **** -0.24
1432 H 65.30608816827558 27.987162423568805 104.94458645335723 H 0.0 **** 0.06
1433 H 63.734733708773575 27.690227052244722 104.16157942147427 H 0.0 **** 0.06
1434 H 65.22215736643278 27.74533302026623 103.18325443494192 H 0.0 **** 0.06
1435 H 64.57821718475472 29.23860492623578 103.9092479514452 H 0.0 **** 0.06
1436 C 70.96409272347938 120.04502410581227 78.70249402793632 C 0.0 **** -0.24
1437 H 71.8567805392704 119.5626212747353 78.30426406150443 H 0.0 **** 0.06
1438 H 70.91511063547517 119.88409908742022 79.7794671131299 H 0.0 **** 0.06
1439 H 70.07962538748978 119.61880503975874 78.22963682214885 H 0.0 **** 0.06
1440 H 71.00706445510394 121.11427854811495 78.49643464395785 H 0.0 **** 0.06
1441 C 71.0217390710697 66.43189540702997 17.037737601483627 C 0.0 **** -0.24
1442 H 70.25940600650623 66.73085045059824 17.75839661127364 H 0.0 **** 0.06
1443 H 71.18246586040573 67.24011379483059 16.323579271764658 H 0.0 **** 0.06
1444 H 70.68933108483111 65.53929371031225 16.50780622057917 H 0.0 **** 0.06
1445 H 71.95318199479715 66.2185057397518 17.56216401307873 H 0.0 **** 0.06
1446 C 50.64095271838366 91.0012255592525 62.16919964024961 C 0.0 **** -0.24
1447 H 49.58884432214808 90.99085663139567 61.88717047102869 H 0.0 **** 0.06
1448 H 51.20098730043702 90.34014023927017 61.50580251626672 H 0.0 **** 0.06
1449 H 50.74495137680384 90.65586779542414 63.198168281914285 H 0.0 **** 0.06
1450 H 51.030441146055495 92.0156611419055 62.08506089179766 H 0.0 **** 0.06
1451 C 3.0838210299887407 101.46078399160052 78.95488217405074 C 0.0 **** -0.24
1452 H 2.7838659283230243 101.65713983846439 79.98397809655324 H 0.0 **** 0.06
1453 H 3.6298584587751606 102.32008807078631 78.5651286938417 H 0.0 **** 0.06
1454 H 2.1972082196298004 101.28702657279945 78.34465742576998 H 0.0 **** 0.06
1455 H 3.7237135468490408 100.57936549456332 78.92516549032302 H 0.0 **** 0.06
1456 C 94.85449833217172 24.20938919636336 96.17762614393666 C 0.0 **** -0.24
1457 H 94.64240295353568 23.99287506014167 95.13064748889815 H 0.0 **** 0.06
1458 H 94.66463573071482 25.264063348892705 96.37700958286234 H 0.0 **** 0.06
1459 H 95.89909026618969 23.981928312771714 96.39086868792134 H 0.0 **** 0.06
1460 H 94.2121539326962 23.59774429555827 96.81212624945493 H 0.0 **** 0.06
1461 C 75.07384471509562 39.73904836384111 53.89961985239131 C 0.0 **** -0.24
1462 H 76.01301359037714 39.53417612586993 53.38529277410049 H 0.0 **** 0.06
1463 H 74.9867686988942 39.087405542272954 54.7690285762084 H 0.0 **** 0.06
1464 H 74.24068474466796 39.55521234909884 53.220993347026166 H 0.0 **** 0.06
1465 H 75.05651649857305 40.78027675312419 54.22187800167339 H 0.0 **** 0.06
1466 C 122.35037084704305 23.29583659477524 58.581519752038844 C 0.0 **** -0.24
1467 H 123.23659525961624 23.786849266654585 58.1793842261616 H 0.0 **** 0.06
1468 H 122.64832948099762 22.5756888987723 59.34402294319124 H 0.0 **** 0.06
1469 H 121.82606246149186 22.778800248867498 57.777021562109866 H 0.0 **** 0.06
1470 H 121.69101716881401 24.04233614029495 59.02374735775724 H 0.0 **** 0.06
1471 C 58.06429743795795 37.445195135205125 39.47128231570383 C 0.0 **** -0.24
1472 H 58.48572484473783 38.37661709360222 39.849662042185855 H 0.0 **** 0.06
1473 H 58.866988683166255 36.73228506519774 39.28506449279399 H 0.0 **** 0.06
1474 H 57.527537264951405 37.639826925933676 38.54249593466949 H 0.0 **** 0.06
1475 H 57.37531580966811 37.03305976380145 40.20943944963494 H 0.0 **** 0.06
1476 C 86.22476317558025 78.09391049482909 17.49730241816394 C 0.0 **** -0.24
1477 H 86.6584272700004 77.66949624010073 16.5920891311859 H 0.0 **** 0.06
1478 H 85.81321239582232 79.07896771693262 17.27595340045457 H 0.0 **** 0.06
1479 H 86.99716161584516 78.18553921540706 18.262001737133915 H 0.0 **** 0.06
1480 H 85.43025752281545 77.44105914611265 17.86045539127997 H 0.0 **** 0.06
1481 C 10.372473065527004 86.88416125615413 40.78835866585706 C 0.0 **** -0.24
1482 H 9.783279710879242 87.51724561480503 40.124651249704755 H 0.0 **** 0.06
1483 H 10.220945211607102 85.83881115544744 40.52143444007453 H 0.0 **** 0.06
1484 H 10.057714025047915 87.04592234103046 41.819752032915915 H 0.0 **** 0.06
1485 H 11.428159030021703 87.13602545965543 40.68726614430318 H 0.0 **** 0.06
1486 C 12.785854799709 48.571438352241415 39.77727681124708 C 0.0 **** -0.24
1487 H 13.397985613035189 49.43512635444321 40.04117481018983 H 0.0 **** 0.06
1488 H 13.222852046531912 47.67150882843535 40.209230917392404 H 0.0 **** 0.06
1489 H 12.746686879794751 48.472566700540284 38.6926006454658 H 0.0 **** 0.06
1490 H 11.777378242436384 48.70951922570342 40.167097067365205 H 0.0 **** 0.06
1491 C 27.403867672602303 39.674571282664466 94.74681210045617 C 0.0 **** -0.24
1492 H 27.905630751543413 39.34933180989465 93.83602114168943 H 0.0 **** 0.06
1493 H 26.337377670629166 39.78955115235996 94.5516791520958 H 0.0 **** 0.06
1494 H 27.82039019286418 40.62840320836804 95.07045043658022 H 0.0 **** 0.06
1495 H 27.551924763999125 38.92978024397884 95.52839543086074 H 0.0 **** 0.06
1496 C 17.416058792724417 6.303336985464796 77.42150103120326 C 0.0 **** -0.24
1497 H 17.331219534402873 7.035850731139504 76.61838891042368 H 0.0 **** 0.06
1498 H 16.450696418871228 5.81879616098783 77.57411463163857 H 0.0 **** 0.06
1499 H 17.720523187123845 6.80475630995943 78.33957464489794 H 0.0 **** 0.06
1500 H 18.160251869891564 5.5537866625398635 77.15203096725159 H 0.0 **** 0.06
1501 C 19.929186928982716 11.849057213488209 113.53487806363167 C 0.0 **** -0.24
1502 H 19.62824914655505 12.893092104635414 113.44711283185782 H 0.0 **** 0.06
1503 H 21.01523796220465 11.777151386504613 113.46772231346002 H 0.0 **** 0.06
1504 H 19.475545112637946 11.271445088875197 112.72923764367079 H 0.0 **** 0.06
1505 H 19.59758188698828 11.455364044844089 114.49658124565806 H 0.0 **** 0.06
1506 C 82.68280185136533 65.66852414931176 22.616445505425077 C 0.0 **** -0.24
1507 H 81.69678427876795 65.58173349431303 22.160617877184222 H 0.0 **** 0.06
1508 H 83.4218581748137 65.18434635324701 21.97868167671831 H 0.0 **** 0.06
1509 H 82.67498502523881 65.18637982442763 23.594383601631137 H 0.0 **** 0.06
1510 H 82.93642828474853 66.72241966075194 22.73312901814009 H 0.0 **** 0.06
1511 C 54.54794121338813 120.97994080604357 37.27006056578561 C 0.0 **** -0.24
1512 H 54.71285799968712 119.90263789355815 37.27727183239932 H 0.0 **** 0.06
1513 H 54.64834847484758 121.35560395086182 36.25139685489747 H 0.0 **** 0.06
1514 H 55.284009569891055 121.46445748923804 37.91171865009638 H 0.0 **** 0.06
1515 H 53.54510976741631 121.19610020047831 37.63987997478619 H 0.0 **** 0.06
1516 C 5.969642284170533 78.57695721383175 102.28261954533215 C 0.0 **** -0.24
1517 H 6.304130990594885 78.04194157503011 103.17072012001938 H 0.0 **** 0.06
1518 H 5.750046748558205 77.86184774663934 101.48916038454632 H 0.0 **** 0.06
1519 H 6.754424268716406 79.2574128127633 101.95156431448277 H 0.0 **** 0.06
1520 H 5.070730676399904 79.1464428377665 102.51841430029617 H 0.0 **** 0.06
1521 C 108.3182612545308 17.606525596366254 23.552266695813188 C 0.0 **** -0.24
1522 H 109.08099105390195 17.04064617515118 23.01861251156282 H 0.0 **** 0.06
1523 H 107.39384199274934 17.605083788319348 22.97379617901879 H 0.0 **** 0.06
1524 H 108.65776507459026 18.63250970991365 23.691869148025575 H 0.0 **** 0.06
1525 H 108.13922902579316 17.14727629930249 24.52520490304508 H 0.0 **** 0.06
1526 C 3.7396899415229257 110.37936717190297 12.355632013739466 C 0.0 **** -0.24
1527 H 3.8314315345645156 109.66140901203534 13.170638572405608 H 0.0 **** 0.06
1528 H 3.5886989146264483 109.8454742199466 11.416304983285897 H 0.0 **** 0.06
1529 H 4.650124144083577 110.97612417027398 12.29235620860183 H 0.0 **** 0.06
1530 H 2.8876615527294973 111.03380038939386 12.5423054510251 H 0.0 **** 0.06
1531 C 115.29326296238273 103.67292798324263 41.90867652656283 C 0.0 **** -0.24
1532 H 116.00666121577518 103.19131532951118 41.241290422289296 H 0.0 **** 0.06
1533 H 115.7137482494685 104.60950129916804 42.27446014859001 H 0.0 **** 0.06
1534 H 115.08208913486723 103.0159576378739 42.75165673844421 H 0.0 **** 0.06
1535 H 114.36946605949302 103.87669787591358 41.36645029300669 H 0.0 **** 0.06
1536 C 116.94892331624214 22.392366985641345 53.46410134443884 C 0.0 **** -0.24
1537 H 116.2939000417673 23.26253420293706 53.50778951095993 H 0.0 **** 0.06
1538 H 116.39682694507108 21.506619876707404 53.7775527085652 H 0.0 **** 0.06
1539 H 117.79999797206635 22.545035657218712 54.128226610643345 H 0.0 **** 0.06
1540 H 117.30424883933776 22.257368202016558 52.442498078461895 H 0.0 **** 0.06
1541 C 18.64445667272513 78.62402276487276 28.933840338966093 C 0.0 **** -0.24
1542 H 19.184883166759644 77.72248268525968 29.2228971404366 H 0.0 **** 0.06
1543 H 18.97606417956147 79.45971094850407 29.551358709028932 H 0.0 **** 0.06
1544 H 17.57544972860439 78.46903354169805 29.077710382736313 H 0.0 **** 0.06
1545 H 18.841987920735605 78.845046157595 27.885307006187986 H 0.0 **** 0.06
1546 C 96.73850854947204 14.616908463798183 45.00728847451961 C 0.0 **** -0.24
1547 H 95.72128337403868 14.356860506493717 44.71631756165368 H 0.0 **** 0.06
1548 H 97.166236157849 15.295249502155855 44.26885928156213 H 0.0 **** 0.06
1549 H 97.34361303954168 13.711716972255488 45.06169500030066 H 0.0 **** 0.06
1550 H 96.72500885201538 15.103262127850712 45.982795016632366 H 0.0 **** 0.06
1551 C 70.52655900418083 62.15579644964922 24.792535256954736 C 0.0 **** -0.24
1552 H 69.51473901198517 62.19253772833783 25.19611982778993 H 0.0 **** 0.06
1553 H 71.22134585023858 61.86273171063457 25.579717850675962 H 0.0 **** 0.06
1554 H 70.80099747628333 63.14089785348532 24.41327022992197 H 0.0 **** 0.06
1555 H 70.56735724205447 61.429702772084404 23.98027936500059 H 0.0 **** 0.06
1556 C 64.14468602837121 27.82138605806952 3.6124871562743763 C 0.0 **** -0.24
1557 H 64.45806080512943 27.097292167987433 4.363848160509461 H 0.0 **** 0.06
1558 H 64.72626411789656 27.673432396595473 2.7016809983066903 H 0.0 **** 0.06
1559 H 64.31074566171526 28.82990920069355 3.989434532848133 H 0.0 **** 0.06
1560 H 63.0857595846328 27.684305665880316 3.3944530831315376 H 0.0 **** 0.06
1561 C 61.85386170131284 114.28482703535616 111.42434426653512 C 0.0 **** -0.24
1562 H 61.000906380831026 114.35868048964625 112.09994332742374 H 0.0 **** 0.06
1563 H 61.95729827184783 115.21609891641594 110.86753488890562 H 0.0 **** 0.06
1564 H 61.69546727327034 113.46026015588842 110.72937103744488 H 0.0 **** 0.06
1565 H 62.760207551368325 114.1037688497417 112.0023427744368 H 0.0 **** 0.06
1566 C 45.25515154130055 53.51408630925752 63.99440911191969 C 0.0 **** -0.24
1567 H 44.80754419184569 54.505510806412616 64.06304765649693 H 0.0 **** 0.06
1568 H 45.43132105497561 53.12543731246441 64.99782350019692 H 0.0 **** 0.06
1569 H 46.2024570442573 53.579913919876844 63.45925479833094 H 0.0 **** 0.06
1570 H 44.58066716993855 52.84758363427164 63.458804751753284 H 0.0 **** 0.06
1571 C 79.43158153683365 42.78612579847811 32.595780448240475 C 0.0 **** -0.24
1572 H 79.43356957103276 43.8650406280085 32.744289225412814 H 0.0 **** 0.06
1573 H 80.45908113331487 42.42510409209228 32.53995843273046 H 0.0 **** 0.06
1574 H 78.9117091135607 42.54721957086099 31.66859570584859 H 0.0 **** 0.06
1575 H 78.922921485758 42.304867085169576 33.431989282942425 H 0.0 **** 0.06
1576 C 27.78290305054287 66.82643653103531 50.36659287294441 C 0.0 **** -0.24
1577 H 27.705582476230177 67.77922274639519 49.84403951148107 H 0.0 **** 0.06
1578 H 28.818106092650936 66.48491183308704 50.34890957693705 H 0.0 **** 0.06
1579 H 27.14821761975972 66.08892021903944 49.87442291057778 H 0.0 **** 0.06
1580 H 27.45859693323402 66.95232769711731 51.399798133209345 H 0.0 **** 0.06
1581 C 46.96029524825648 71.21753870317062 8.577805877832759 C 0.0 **** -0.24
1582 H 47.417800845161224 71.14218752642509 7.591734929666188 H 0.0 **** 0.06
1583 H 47.66123050779291 70.8612590970449 9.332449311983112 H 0.0 **** 0.06
1584 H 46.055471889082185 70.60898396492274 8.605519476227016 H 0.0 **** 0.06
1585 H 46.704607682948065 72.25677274231782 8.780619885493536 H 0.0 **** 0.06
1586 C 54.584053509416805 36.715926952074724 52.29514992689178 C 0.0 **** -0.24
1587 H 55.611160945368084 36.447063782544774 52.04520567383002 H 0.0 **** 0.06
1588 H 54.02103039393754 36.88765169438335 51.37766656343786 H 0.0 **** 0.06
1589 H 54.58282136953051 37.62207594473607 52.89997845508815 H 0.0 **** 0.06
1590 H 54.12356656034339 35.90306605297553 52.85698627048286 H 0.0 **** 0.06
1591 C 23.111258456188523 98.98264938286218 21.060210958671547 C 0.0 **** -0.24
1592 H 22.818966164083463 99.86730549799137 21.6257203654267 H 0.0 **** 0.06
1593 H 22.819219223222206 99.10567324535259 20.017364212325248 H 0.0 **** 0.06
1594 H 22.615557744603507 98.10575370676645 21.47588856302056 H 0.0 **** 0.06
1595 H 24.192255536601863 98.85237367795224 21.122770981275806 H 0.0 **** 0.06
1596 C 28.022981726221644 52.55973241648073 13.150842539948709 C 0.0 **** -0.24
1597 H 27.63951258252939 53.091798475030686 14.021111016527751 H 0.0 **** 0.06
1598 H 27.598879448501748 51.555578066919395 13.121955161056071 H 0.0 **** 0.06
1599 H 29.109768382273245 52.4935638019233 13.216437520822161 H 0.0 **** 0.06
1600 H 27.745970000378804 53.098213051496 12.244174312701954 H 0.0 **** 0.06
1601 C 104.05181397021161 7.714506911697409 16.24270607126917 C 0.0 **** -0.24
1602 H 104.53676483993914 6.861812706487736 16.718275617991083 H 0.0 **** 0.06
1603 H 103.21915341917543 8.04968303249678 16.86074852802193 H 0.0 **** 0.06
1604 H 103.68173259382186 7.420519202899104 15.260903602450014 H 0.0 **** 0.06
1605 H 104.7720341943222 8.525697805000437 16.130914496762387 H 0.0 **** 0.06
1606 C 41.145876363495 79.99326206936709 49.54067491037092 C 0.0 **** -0.24
1607 H 41.19973710677112 81.0644716085024 49.34878634071656 H 0.0 **** 0.06
1608 H 41.323827645087285 79.4491741630072 48.612049620667044 H 0.0 **** 0.06
1609 H 40.157475141665614 79.74233602031026 49.92524513101573 H 0.0 **** 0.06
1610 H 41.90267453438531 79.71718576497656 50.274633020190464 H 0.0 **** 0.06
1611 C 78.40260896785574 6.47277007070555 27.196892578739188 C 0.0 **** -0.24
1612 H 77.9651561905022 5.479098334555751 27.287813516713896 H 0.0 **** 0.06
1613 H 79.43789764717661 6.384339328683389 26.86717527925645 H 0.0 **** 0.06
1614 H 78.36982537456086 6.973047855667076 28.165433531190487 H 0.0 **** 0.06
1615 H 77.83668472887157 7.053970869369817 26.468508377488185 H 0.0 **** 0.06
1616 C 50.23052221529923 104.60929655595834 96.02499670226788 C 0.0 **** -0.24
1617 H 50.533902992151525 105.53413219939168 96.51640926564357 H 0.0 **** 0.06
1618 H 49.595122004634504 104.8441975689106 95.17109787167468 H 0.0 **** 0.06
1619 H 49.67782480074868 103.98785933864443 96.72959409281711 H 0.0 **** 0.06
1620 H 51.11601125438722 104.07264292640858 95.68371939855211 H 0.0 **** 0.06
1621 C 44.71887772928109 110.8314710259665 113.05380241010931 C 0.0 **** -0.24
1622 H 45.544446713545234 110.3573893096949 112.52341624778785 H 0.0 **** 0.06
1623 H 44.59573372813438 110.36228820449975 114.02975022925838 H 0.0 **** 0.06
1624 H 43.8016440785596 110.71471099841699 112.47580871936307 H 0.0 **** 0.06
1625 H 44.93346842341585 111.8922470931202 113.18439380414947 H 0.0 **** 0.06
1626 C 106.12135846530441 38.7151948887698 116.56847794472229 C 0.0 **** -0.24
1627 H 106.7894952693481 38.104588727794045 117.17503412824016 H 0.0 **** 0.06
1628 H 105.17492533282967 38.192432517071225 116.43327841560057 H 0.0 **** 0.06
1629 H 106.57899377483045 38.896106019689746 115.59565872233524 H 0.0 **** 0.06
1630 H 105.94344910792657 39.6667088644776 117.06968304366738 H 0.0 **** 0.06
1631 C 101.12671268310041 70.14615720157218 67.99959600061575 C 0.0 **** -0.24
1632 H 100.50141200226707 70.74509498624127 67.33649435552317 H 0.0 **** 0.06
1633 H 100.98699263468174 70.4781291382696 69.02796413703211 H 0.0 **** 0.06
1634 H 102.17243016253965 70.26363527550535 67.71657489385564 H 0.0 **** 0.06
1635 H 100.84326867598645 69.09628239917367 67.91431047676946 H 0.0 **** 0.06
1636 C 35.996224066837726 70.43744616511216 58.854647700149435 C 0.0 **** -0.24
1637 H 36.50006450328519 71.16143536492308 58.21568566583979 H 0.0 **** 0.06
1638 H 35.69049043143289 70.92203546109445 59.782043140065674 H 0.0 **** 0.06
1639 H 36.67616139415205 69.61613247179636 59.079194203380844 H 0.0 **** 0.06
1640 H 35.11587753975297 70.05036611215277 58.33975328649927 H 0.0 **** 0.06
1641 C 19.62793536789205 85.98730450028629 25.202776571926435 C 0.0 **** -0.24
1642 H 19.070123752891547 86.87033440018988 25.5167520544588 H 0.0 **** 0.06
1643 H 20.644692497881323 86.04240697673822 25.592981441013713 H 0.0 **** 0.06
1644 H 19.657661512722484 85.94476859072472 24.11414708243295 H 0.0 **** 0.06
1645 H 19.138548389763315 85.09258348885163 25.58853798439747 H 0.0 **** 0.06
1646 C 55.89053695139381 121.73269297005105 66.38544529755555 C 0.0 **** -0.24
1647 H 55.75536610211182 122.77662674203759 66.1059759022981 H 0.0 **** 0.06
1648 H 55.22427942969904 121.1079455602585 65.78984411807971 H 0.0 **** 0.06
1649 H 55.65859304088366 121.60594295813429 67.44329104738628 H 0.0 **** 0.06
1650 H 56.92488391366942 121.4392376637743 66.20256132284175 H 0.0 **** 0.06
1651 C 27.239547617443755 21.691720783219267 68.22418567742199 C 0.0 **** -0.24
1652 H 26.263434717012835 21.293690259849384 67.94463870852792 H 0.0 **** 0.06
1653 H 27.86500020584309 21.777394378978386 67.33533684295594 H 0.0 **** 0.06
1654 H 27.714707357213946 21.018747192521545 68.93911923485481 H 0.0 **** 0.06
1655 H 27.11428083617551 22.674179767456707 68.67805530719946 H 0.0 **** 0.06
1656 C 54.622308843548865 72.61691727571048 74.24359462501616 C 0.0 **** -0.24
1657 H 55.096961174816585 72.71501782143508 75.2207914694394 H 0.0 **** 0.06
1658 H 54.70733288461534 73.5597512212272 73.70284031913138 H 0.0 **** 0.06
1659 H 53.569852368322984 72.3668606246379 74.37453402163749 H 0.0 **** 0.06
1660 H 55.11585118067933 71.82758994709741 73.67763226415605 H 0.0 **** 0.06
1661 C 41.77076639657918 70.61307815223182 30.05881201881825 C 0.0 **** -0.24
1662 H 42.23097539210096 70.2970792457844 30.995165326889385 H 0.0 **** 0.06
1663 H 41.5639009647183 69.73863504127206 29.442555563611357 H 0.0 **** 0.06
1664 H 42.449919474219996 71.28011403733422 29.528089548683305 H 0.0 **** 0.06
1665 H 40.83942734443494 71.13792404513453 30.271801441860454 H 0.0 **** 0.06
1666 C 49.04029131965922 28.518961220874743 68.74129451990856 C 0.0 **** -0.24
1667 H 49.745840599788096 28.394028264337166 69.56343998586584 H 0.0 **** 0.06
1668 H 48.54808596310875 29.48771094757624 68.82964613522276 H 0.0 **** 0.06
1669 H 48.29313963969361 27.7256453222231 68.78041532789254 H 0.0 **** 0.06
1670 H 49.57532464157174 28.467592009753453 67.7933332095918 H 0.0 **** 0.06
1671 C 77.32600813821793 12.82260350538547 113.97864169750812 C 0.0 **** -0.24
1672 H 77.41068027138647 12.44936525837947 112.95748596354576 H 0.0 **** 0.06
1673 H 76.29299355548702 12.730597029625208 114.31477832976788 H 0.0 **** 0.06
1674 H 77.62635108064046 13.869620174936706 114.00887906911728 H 0.0 **** 0.06
1675 H 77.97432476078612 12.239243473799508 114.63280894289267 H 0.0 **** 0.06
1676 C 84.61135462148144 87.25904176061411 54.713641517301085 C 0.0 **** -0.24
1677 H 85.14153108465308 87.38195203815908 55.6587135676879 H 0.0 **** 0.06
1678 H 84.08769520580063 88.18342882579623 54.46806148901027 H 0.0 **** 0.06
1679 H 83.89090044051426 86.4464323200321 54.80471168766488 H 0.0 **** 0.06
1680 H 85.32500571921645 87.02475419637668 53.9247400716921 H 0.0 **** 0.06
1681 C 53.167946560749414 48.61272966672581 75.58693881487102 C 0.0 **** -0.24
1682 H 53.11012646697199 47.5776090667039 75.92443747240495 H 0.0 **** 0.06
1683 H 54.17330440572658 48.9963150145131 75.7642579667706 H 0.0 **** 0.06
1684 H 52.44609325594328 49.21569648777941 76.13755931274571 H 0.0 **** 0.06
1685 H 52.94426026400154 48.659321875663494 74.5211805248461 H 0.0 **** 0.06
1686 C 51.75348579664532 88.93633135854031 76.90138774786203 C 0.0 **** -0.24
1687 H 52.39043728772521 89.62316288474273 76.34326820109263 H 0.0 **** 0.06
1688 H 52.06391125725472 87.91041661378898 76.70233971262971 H 0.0 **** 0.06
1689 H 50.716791284427856 89.06983294048769 76.59062095024129 H 0.0 **** 0.06
1690 H 51.84332067907251 89.14310767752312 77.96724717060914 H 0.0 **** 0.06
1691 C 21.08123450210047 13.506404379842849 65.66975261540438 C 0.0 **** -0.24
1692 H 22.059809248928048 13.85137332370249 65.33661301482911 H 0.0 **** 0.06
1693 H 20.406713728550272 13.450349325604037 64.8157194473427 H 0.0 **** 0.06
1694 H 20.680570203159945 14.20426050909586 66.4053565182725 H 0.0 **** 0.06
1695 H 21.178676107991258 12.518950927099809 66.12223908819948 H 0.0 **** 0.06
1696 C 18.76881948125856 80.05771785172033 102.54428736568201 C 0.0 **** -0.24
1697 H 18.14330916144138 80.34102780177935 103.39143699925597 H 0.0 **** 0.06
1698 H 18.78789445744053 80.87115788301594 101.81939526522098 H 0.0 **** 0.06
1699 H 18.362348182262906 79.16123653496786 102.07598995338361 H 0.0 **** 0.06
1700 H 19.782755214352562 79.85802131419871 102.89247526195268 H 0.0 **** 0.06
1701 C 13.442712107742011 12.405518395783105 20.62958470731698 C 0.0 **** -0.24
1702 H 13.187263704362636 13.203760187257416 21.325387984310225 H 0.0 **** 0.06
1703 H 12.548212278150118 12.093456139017661 20.08970010744062 H 0.0 **** 0.06
1704 H 13.84929028843166 11.557948231756853 21.182205900432876 H 0.0 **** 0.06
1705 H 14.187740766712352 12.766927498930357 19.920545988853746 H 0.0 **** 0.06
1706 C 58.03205776655363 90.48804157363872 120.15112768426218 C 0.0 **** -0.24
1707 H 56.95128406700368 90.36325552274414 120.07594891483669 H 0.0 **** 0.06
1708 H 58.50451476649129 89.51078760018117 120.24737294590679 H 0.0 **** 0.06
1709 H 58.26770896780767 91.0935012563138 121.025609898155 H 0.0 **** 0.06
1710 H 58.402673209868844 90.98459488155748 119.25468632939007 H 0.0 **** 0.06
1711 C 98.26422433044516 8.800200323544999 56.274771367792226 C 0.0 **** -0.24
1712 H 98.19469863164423 9.756104774044616 56.79470985792727 H 0.0 **** 0.06
1713 H 99.21811838960511 8.327645905142731 56.510853180279696 H 0.0 **** 0.06
1714 H 98.19713515718155 8.965969768698614 55.199034074767326 H 0.0 **** 0.06
1715 H 97.44864925085338 8.152407956955557 56.59506721328873 H 0.0 **** 0.06
1716 C 74.19229429885291 7.88832558983313 58.58467686474074 C 0.0 **** -0.24
1717 H 75.07194399054828 7.264617678261146 58.424986536777226 H 0.0 **** 0.06
1718 H 74.31965116773074 8.837553693854005 58.06293225308434 H 0.0 **** 0.06
1719 H 74.06818677099733 8.073651730898689 59.65150705715013 H 0.0 **** 0.06
1720 H 73.30939526613503 7.3774792563187646 58.19928161195156 H 0.0 **** 0.06
1721 C 56.07057750516242 73.26259270789703 115.85439282148681 C 0.0 **** -0.24
1722 H 56.19262527775953 74.34060949106004 115.9669422485353 H 0.0 **** 0.06
1723 H 55.99460368603303 72.80140973199153 116.83996345100692 H 0.0 **** 0.06
1724 H 56.93141418448403 72.85278063845925 115.32633184634884 H 0.0 **** 0.06
1725 H 55.163788689991975 73.05778193632102 115.28635791635773 H 0.0 **** 0.06
1726 C 107.59549497385507 74.00088528050543 31.27564228498025 C 0.0 **** -0.24
1727 H 108.10269254727976 73.54701119695255 30.423761357732474 H 0.0 **** 0.06
1728 H 108.19668844900369 73.85629838892694 32.17403320216576 H 0.0 **** 0.06
1729 H 106.62123510955405 73.53155995927776 31.409998361365894 H 0.0 **** 0.06
1730 H 107.46439332843028 75.06699686146845 31.093767285394023 H 0.0 **** 0.06
1731 C 67.48522093059898 103.78904438322104 57.73265599763923 C 0.0 **** -0.24
1732 H 66.5625259915459 103.89207206069977 57.161941135712766 H 0.0 **** 0.06
1733 H 67.99297378504806 102.8697554392916 57.437667681204886 H 0.0 **** 0.06
1734 H 67.25098568351586 103.74958150106121 58.7966074422724 H 0.0 **** 0.06
1735 H 68.13236273060926 104.64216590183483 57.53336677226906 H 0.0 **** 0.06
1736 C 121.909255883077 85.73887828381493 90.79888096881172 C 0.0 **** -0.24
1737 H 121.08141928839524 85.62651750320805 91.49842704457575 H 0.0 **** 0.06
1738 H 122.12915403449257 84.77532794753617 90.33838154116114 H 0.0 **** 0.06
1739 H 122.78994640399392 86.09457761205587 91.33418028293426 H 0.0 **** 0.06
1740 H 121.6376542660952 86.45836603079164 90.02631052966052 H 0.0 **** 0.06
1741 C 111.4318383802945 52.21630745062623 67.71759937564582 C 0.0 **** -0.24
1742 H 111.00960574926174 52.079606147767606 66.7226825865514 H 0.0 **** 0.06
1743 H 110.8608651696872 51.63012319575688 68.43855486207343 H 0.0 **** 0.06
1744 H 111.38752230959767 53.27074784447518 67.98897114014042 H 0.0 **** 0.06
1745 H 112.47012150737126 51.8841645193304 67.71991550597684 H 0.0 **** 0.06
1746 C 65.66008064472999 108.90323101090087 22.73402672280811 C 0.0 **** -0.24
1747 H 65.11105085711577 109.66914615994926 23.280312651635242 H 0.0 **** 0.06
1748 H 64.96863240275596 108.12866491797419 22.400749237044344 H 0.0 **** 0.06
1749 H 66.41395382448985 108.46207117111834 23.386444825869596 H 0.0 **** 0.06
1750 H 66.14715110938943 109.35213736564924 21.867617668415228 H 0.0 **** 0.06
1751 C 36.83148760861309 118.67475561714069 80.60930992287399 C 0.0 **** -0.24
1752 H 35.8430042667155 118.258494731236 80.41624086401083 H 0.0 **** 0.06
1753 H 37.47571305579413 118.49562430878372 79.74807028247224 H 0.0 **** 0.06
1754 H 37.26127007722651 118.19595103130403 81.48995764220572 H 0.0 **** 0.06
1755 H 36.74613901692851 119.74746700730826 80.78429863382809 H 0.0 **** 0.06
1756 C 47.27301324871398 46.95735233872347 23.558507677886197 C 0.0 **** -0.24
1757 H 46.66054337446084 46.84658056533519 22.66343090938775 H 0.0 **** 0.06
1758 H 46.64172079065867 46.87198600567976 24.443418178568756 H 0.0 **** 0.06
1759 H 47.75671474751998 47.93422040170617 23.549299584508532 H 0.0 **** 0.06
1760 H 48.03210789966272 46.17542212926992 23.57660685011666 H 0.0 **** 0.06
1761 C 11.654023894326066 27.73290518633442 11.31434603246879 C 0.0 **** -0.24
1762 H 11.413849956387281 26.8615217162087 11.922278900171307 H 0.0 **** 0.06
1763 H 12.518910021630223 27.513296464028286 10.688560836348302 H 0.0 **** 0.06
1764 H 11.880576305491385 28.577727371537406 11.964217226987898 H 0.0 **** 0.06
1765 H 10.801088863367518 27.980279735067285 10.681455948677467 H 0.0 **** 0.06
1766 C 18.217038649244735 34.705973724978435 66.21663612981257 C 0.0 **** -0.24
1767 H 17.826419106183202 35.71679197071802 66.33428382419095 H 0.0 **** 0.06
1768 H 18.84928095413194 34.66125844092261 65.32960773947346 H 0.0 **** 0.06
1769 H 17.38717781481618 34.0073527710357 66.10781097614466 H 0.0 **** 0.06
1770 H 18.80397768593482 34.43872607576219 67.09534961425507 H 0.0 **** 0.06
1771 C 111.36129141162857 33.845331537178936 112.35673081095695 C 0.0 **** -0.24
1772 H 111.66094346209256 33.53738725291322 113.3592427469292 H 0.0 **** 0.06
1773 H 111.99951895203064 33.35498402732361 111.62117857292336 H 0.0 **** 0.06
1774 H 111.46205886721222 34.92660449042586 112.26333999019826 H 0.0 **** 0.06
1775 H 110.32341521634109 33.5611823108685 112.18517234207232 H 0.0 **** 0.06
1776 C 79.87387427754439 64.99382049339397 85.83574916703412 C 0.0 **** -0.24
1777 H 79.83391398135493 66.08279446718592 85.82025833377364 H 0.0 **** 0.06
1778 H 80.88659303394743 64.67067223791804 86.07876173645838 H 0.0 **** 0.06
1779 H 79.59366051859897 64.60612206465441 84.85671583557044 H 0.0 **** 0.06
1780 H 79.18170834503118 64.61555373492592 86.58861619362443 H 0.0 **** 0.06
1781 C 82.14593452937146 33.993831322938945 28.080522819246283 C 0.0 **** -0.24
1782 H 81.94326534075606 35.064312600100976 28.113916910596316 H 0.0 **** 0.06
1783 H 82.16646949260888 33.59585756528267 29.096487136162892 H 0.0 **** 0.06
1784 H 83.11071811040011 33.82164407232929 27.603914705301293 H 0.0 **** 0.06
1785 H 81.36359175298799 33.49385208633308 27.50996112823364 H 0.0 **** 0.06
1786 C 14.153844466126856 54.18118781791148 56.05847748891813 C 0.0 **** -0.24
1787 H 13.463729477639276 54.39609346694684 55.24142663354664 H 0.0 **** 0.06
1788 H 13.928572851770866 53.19984083162984 56.47503826168892 H 0.0 **** 0.06
1789 H 14.04426936275135 54.939470290917995 56.833826520297805 H 0.0 **** 0.06
1790 H 15.176607161045013 54.19113312328082 55.681625139692756 H 0.0 **** 0.06
1791 C 13.683884507646756 32.82394886984146 118.83738286058502 C 0.0 **** -0.24
1792 H 14.184146460975047 32.75240749419905 117.87086590859037 H 0.0 **** 0.06
1793 H 13.742840107834759 31.862453207972713 119.3480143240413 H 0.0 **** 0.06
1794 H 12.638836655984903 33.09235608271762 118.6848651650303 H 0.0 **** 0.06
1795 H 14.171414295462082 33.58817375696801 119.44247718690659 H 0.0 **** 0.06
1796 C 113.7565841883278 57.99007541280296 89.7283718711268 C 0.0 **** -0.24
1797 H 113.93332801655043 57.758586593756554 88.67826395080107 H 0.0 **** 0.06
1798 H 114.57723505532326 57.598815435847406 90.32989321697403 H 0.0 **** 0.06
1799 H 112.82010791046592 57.53126860470049 90.04809161177613 H 0.0 **** 0.06
1800 H 113.69456323900982 59.06996941738776 89.85739276000973 H 0.0 **** 0.06
1801 C 20.04022840197021 22.247689523524627 4.365202937031711 C 0.0 **** -0.24
1802 H 20.759046650684525 21.694672114004504 4.969344614548106 H 0.0 **** 0.06
1803 H 19.484837018530612 22.936746697901242 5.002763790665824 H 0.0 **** 0.06
1804 H 19.347538578012063 21.549602074652682 3.8958503897922583 H 0.0 **** 0.06
1805 H 20.568184156335775 22.809637292594687 3.5946644475827156 H 0.0 **** 0.06
1806 C 75.19413467426844 58.98493275560733 3.8924964027916644 C 0.0 **** -0.24
1807 H 75.67666516824477 59.41995377989315 3.017618053587114 H 0.0 **** 0.06
1808 H 75.06072236382403 57.913339403332344 3.7375832542185776 H 0.0 **** 0.06
1809 H 74.22162833664703 59.453842110641034 4.042911091064298 H 0.0 **** 0.06
1810 H 75.81753149672295 59.15072989270587 4.77028610316728 H 0.0 **** 0.06
1811 C 116.36203797028716 33.2108757870148 43.91771719048347 C 0.0 **** -0.24
1812 H 115.73308493171703 32.80499515986195 43.12443590042787 H 0.0 **** 0.06
1813 H 116.08274860288319 32.75695332464486 44.869165582835905 H 0.0 **** 0.06
1814 H 116.22319804960762 34.2906799958481 43.974774168760035 H 0.0 **** 0.06
1815 H 117.40685639753522 32.989210064798186 43.70144222570684 H 0.0 **** 0.06
1816 C 25.234591765760683 75.67160680003659 92.89464931290564 C 0.0 **** -0.24
1817 H 25.16687382791514 74.58605471799453 92.9566333232411 H 0.0 **** 0.06
1818 H 24.83021456599289 76.00641464205881 91.93901184999237 H 0.0 **** 0.06
1819 H 26.27791589933446 75.97633363570174 92.97508203740946 H 0.0 **** 0.06
1820 H 24.662008433451547 76.11803126306498 93.70785634371413 H 0.0 **** 0.06
1821 C 52.37726915885486 109.89242023604587 27.196056906135674 C 0.0 **** -0.24
1822 H 52.52417330992719 110.97286461820295 27.200984847296013 H 0.0 **** 0.06
1823 H 53.33465753881603 109.39488185016751 27.35193888773904 H 0.0 **** 0.06
1824 H 51.96094331861178 109.588145291655 26.23524644835492 H 0.0 **** 0.06
1825 H 51.68926419442559 109.6162985723258 27.99413336662782 H 0.0 **** 0.06
1826 C 107.68728105364067 68.14683320416299 40.45644573935408 C 0.0 **** -0.24
1827 H 107.38485730846176 68.04625361468402 41.499646990626445 H 0.0 **** 0.06
1828 H 107.69032990171644 67.16531834498286 39.98334494152243 H 0.0 **** 0.06
1829 H 108.68767183465752 68.5772635427399 40.40939101459486 H 0.0 **** 0.06
1830 H 106.98591808439062 68.80017859862258 39.93672470522807 H 0.0 **** 0.06
1831 C 75.20216621089881 47.07600510852447 89.68454930275354 C 0.0 **** -0.24
1832 H 75.36977494135306 48.0878765278886 89.3186141311048 H 0.0 **** 0.06
1833 H 75.24943724437364 46.3755143483515 88.84940536270534 H 0.0 **** 0.06
1834 H 74.2199959732803 47.0166801931274 90.15255171499982 H 0.0 **** 0.06
1835 H 75.96862345480017 46.821677805030845 90.41585223626294 H 0.0 **** 0.06
1836 C 1.0563406793569783 58.916124859054214 5.204667516212531 C 0.0 **** -0.24
1837 H 1.9310348866477796 58.284911861893626 5.358408442432566 H 0.0 **** 0.06
1838 H 1.343556528589474 59.80441917738458 4.64126407451681 H 0.0 **** 0.06
1839 H 0.6490900251852167 59.21430272942499 6.171518111043433 H 0.0 **** 0.06
1840 H 0.30109400146163523 58.36055910802589 4.648228559262785 H 0.0 **** 0.06
1841 C 63.961637145135 25.22820641656378 95.85070529067102 C 0.0 **** -0.24
1842 H 64.6481961961955 24.381738214472733 95.82936533089281 H 0.0 **** 0.06
1843 H 63.74330339553876 25.545436398558508 94.83134882608456 H 0.0 **** 0.06
1844 H 64.41812955197139 26.05314226637327 96.39893036362488 H 0.0 **** 0.06
1845 H 63.03602301795422 24.93195172829371 96.3463209593759 H 0.0 **** 0.06
1846 C 66.878804949829 31.065670049244915 5.113632437947025 C 0.0 **** -0.24
1847 H 66.22982012920889 31.85751738735405 5.488919897466676 H 0.0 **** 0.06
1848 H 67.13778631654299 31.27222446201077 4.07528565381266 H 0.0 **** 0.06
1849 H 66.35818864742754 30.109853932918753 5.175780390727859 H 0.0 **** 0.06
1850 H 67.78657319298102 31.02498118310345 5.715065164059574 H 0.0 **** 0.06
1851 C 104.11690671269605 43.224596085525405 28.469357523240404 C 0.0 **** -0.24
1852 H 103.29365458003548 43.34851499277599 29.173700636120174 H 0.0 **** 0.06
1853 H 103.72413452725067 42.900326047826184 27.506556407876133 H 0.0 **** 0.06
1854 H 104.81120462139972 42.47620382236843 28.85087494213664 H 0.0 **** 0.06
1855 H 104.6375058535375 44.175123953060506 28.34885653030301 H 0.0 **** 0.06
1856 C 78.11658744594291 117.2118554780838 73.35619177468189 C 0.0 **** -0.24
1857 H 77.54520426150651 116.28781162491273 73.26958156562281 H 0.0 **** 0.06
1858 H 78.4605726647184 117.33146074673274 74.38354365063373 H 0.0 **** 0.06
1859 H 77.48423384777894 118.05751039315226 73.08362639349915 H 0.0 **** 0.06
1860 H 78.97601672520346 117.17125888904962 72.68678578801484 H 0.0 **** 0.06
1861 C 32.2617229298674 66.20545840056175 66.11847386042615 C 0.0 **** -0.24
1862 H 32.97609939919346 66.76278880968846 66.72494582252301 H 0.0 **** 0.06
1863 H 32.49685439331543 66.34252183307214 65.06335827568435 H 0.0 **** 0.06
1864 H 31.254543820152946 66.5702884409639 66.31739182023765 H 0.0 **** 0.06
1865 H 32.32179285618906 65.1461880532924 66.370259717186 H 0.0 **** 0.06
1866 C 108.9557577456107 60.66546228931919 26.218466069662412 C 0.0 **** -0.24
1867 H 109.07774231589624 60.78558694483974 27.29525713532587 H 0.0 **** 0.06
1868 H 108.31592982139429 61.459334046773925 25.834457043665253 H 0.0 **** 0.06
1869 H 108.50049142655459 59.697577287902114 26.011339854858704 H 0.0 **** 0.06
1870 H 109.93171820208303 60.718508198052994 25.73566749359773 H 0.0 **** 0.06
1871 C 71.95757444909208 94.7463726706514 91.53022119886288 C 0.0 **** -0.24
1872 H 72.71121014413518 94.01424269496064 91.24078373127983 H 0.0 **** 0.06
1873 H 71.56166732770998 94.49113095416428 92.51316033439946 H 0.0 **** 0.06
1874 H 71.14917556081613 94.74341671763378 90.79915100924748 H 0.0 **** 0.06
1875 H 72.41011545633006 95.73780748587365 91.56666055374467 H 0.0 **** 0.06
1876 C 81.32483722948996 65.71657396510045 107.20893111097578 C 0.0 **** -0.24
1877 H 81.27689129117829 65.97584390711211 106.15148163608137 H 0.0 **** 0.06
1878 H 80.56816013539952 66.28029761439973 107.75610169020985 H 0.0 **** 0.06
1879 H 82.31257833002837 65.96061326393126 107.59843900737087 H 0.0 **** 0.06
1880 H 81.14023123547435 64.64865475124739 107.32967615174027 H 0.0 **** 0.06
1881 C 56.943527563584944 48.580378454132344 118.02200867004919 C 0.0 **** -0.24
1882 H 56.533491432113 47.68516614565779 118.48929916987248 H 0.0 **** 0.06
1883 H 56.16007203647549 49.332536512932386 117.93018376212913 H 0.0 **** 0.06
1884 H 57.32689230071251 48.330962904165006 117.03310451112515 H 0.0 **** 0.06
1885 H 57.75488383544975 48.97179775360186 118.63699171927036 H 0.0 **** 0.06
1886 C 1.3516139398014957 89.38502481133159 1.4655390832871262 C 0.0 **** -0.24
1887 H 1.3233551429538881 88.72692009067572 0.596588684962768 H 0.0 **** 0.06
1888 H 1.9360077829669216 88.91599589464161 2.257341369297478 H 0.0 **** 0.06
1889 H 0.3358320673833095 89.56317681708265 1.8185110109696154 H 0.0 **** 0.06
1890 H 1.8111741875981018 90.33344995294493 1.18755122045809 H 0.0 **** 0.06
1891 C 21.132420628922496 82.0855087360653 52.384639490149084 C 0.0 **** -0.24
1892 H 20.341927340978316 82.7098118943104 52.80037140145518 H 0.0 **** 0.06
1893 H 22.076937086881514 82.63055556534601 52.41191302028082 H 0.0 **** 0.06
1894 H 20.88962535973156 81.83003169230702 51.35371320440544 H 0.0 **** 0.06
1895 H 21.22210857310717 81.1729028906125 52.97444607668476 H 0.0 **** 0.06
1896 C 91.2607954476374 54.77098812327159 70.38907422004431 C 0.0 **** -0.24
1897 H 91.31752705350925 53.702942454513845 70.18160605101608 H 0.0 **** 0.06
1898 H 92.26259852524493 55.15921193737921 70.57396612300593 H 0.0 **** 0.06
1899 H 90.6398494882335 54.93685392682224 71.26933200657214 H 0.0 **** 0.06
1900 H 90.82388470468936 55.28529588109362 69.5337201397966 H 0.0 **** 0.06
1901 C 5.880912497213853 47.08526793983114 31.476363593824033 C 0.0 **** -0.24
1902 H 5.206780402642934 47.670487823499684 32.1015265463206 H 0.0 **** 0.06
1903 H 6.336226687325301 47.73383612818882 30.727414686674678 H 0.0 **** 0.06
1904 H 5.320547440193323 46.29322379631668 30.97977604082557 H 0.0 **** 0.06
1905 H 6.660931646870598 46.644039447094336 32.09775456234402 H 0.0 **** 0.06
1906 C 28.300797766019514 48.15126070687796 71.92181457208972 C 0.0 **** -0.24
1907 H 27.37101121705038 48.704246248967706 71.78656251182161 H 0.0 **** 0.06
1908 H 28.156317225700718 47.378075026303975 72.6767055780769 H 0.0 **** 0.06
1909 H 29.085840080976425 48.83512302444734 72.2477779762184 H 0.0 **** 0.06
1910 H 28.590280592721996 47.68899853450051 70.97793665504815 H 0.0 **** 0.06
1911 C 42.386629073557216 73.88359621861906 108.0530940887079 C 0.0 **** -0.24
1912 H 42.590367983812435 73.44949367963966 107.07350200417375 H 0.0 **** 0.06
1913 H 43.27724190706797 73.80489544732899 108.6766084040521 H 0.0 **** 0.06
1914 H 41.56381910439339 73.3464255758413 108.52423690487649 H 0.0 **** 0.06
1915 H 42.11609569029991 74.93269351601188 107.93597600599296 H 0.0 **** 0.06
1916 C 30.934630724904203 16.370952126434442 53.029802603486075 C 0.0 **** -0.24
1917 H 30.6902490440213 16.943764411983032 53.92420508079806 H 0.0 **** 0.06
1918 H 31.103651565070223 15.327979656938542 53.301816643108594 H 0.0 **** 0.06
1919 H 31.83679360804186 16.778168067994834 52.57191669020679 H 0.0 **** 0.06
1920 H 30.108485294124257 16.433143610020533 52.32131965487207 H 0.0 **** 0.06
1921 C 107.99925537440055 3.413864026568927 94.88186045560272 C 0.0 **** -0.24
1922 H 108.29322348754232 3.8152297746095947 93.91196436845183 H 0.0 **** 0.06
1923 H 108.79944980543632 3.5828962400553 95.60297012539175 H 0.0 **** 0.06
1924 H 107.81066009112692 2.343959416633883 94.79035579097061 H 0.0 **** 0.06
1925 H 107.09228733398979 3.9149712058379667 95.2214613231009 H 0.0 **** 0.06
1926 C 6.126011023073641 18.272857074361013 2.176355141891328 C 0.0 **** -0.24
1927 H 5.460936540898018 17.83808667157888 2.923717744119358 H 0.0 **** 0.06
1928 H 5.683361192257692 19.189611858955345 1.7877616765770732 H 0.0 **** 0.06
1929 H 6.268432920080539 17.562696219451738 1.3614565443718245 H 0.0 **** 0.06
1930 H 7.0883596786643785 18.49893694906288 2.6344545062938174 H 0.0 **** 0.06
1931 C 97.54434080521295 117.36934203591929 102.10815622673988 C 0.0 **** -0.24
1932 H 96.51282253764484 117.32305163770944 102.45659182015018 H 0.0 **** 0.06
1933 H 97.64475991408807 118.17155904864183 101.37646021951048 H 0.0 **** 0.06
1934 H 97.81508788223064 116.42007264116944 101.64613809608056 H 0.0 **** 0.06
1935 H 98.20469288688835 117.56268481615652 102.95343477121813 H 0.0 **** 0.06
1936 C 5.484478619883021 121.35241048527803 47.30547117740636 C 0.0 **** -0.24
1937 H 4.716117241494601 120.83002791076802 47.874975645430766 H 0.0 **** 0.06
1938 H 6.432142831767237 121.30152394466245 47.8429600714844 H 0.0 **** 0.06
1939 H 5.195576656375863 122.39522618823594 47.17616855183533 H 0.0 **** 0.06
1940 H 5.595253661576521 120.88146925833524 46.328600462897214 H 0.0 **** 0.06
1941 C 22.97800037379662 106.91443146870864 120.98601812113003 C 0.0 **** -0.24
1942 H 22.666595082485884 107.19252124374032 121.99260041681976 H 0.0 **** 0.06
1943 H 23.061876363040227 107.81029262515258 120.37041373354624 H 0.0 **** 0.06
1944 H 22.238920382522593 106.24123316941822 120.5505953415491 H 0.0 **** 0.06
1945 H 23.944489648645487 106.41145174309239 121.03030196861734 H 0.0 **** 0.06
1946 C 112.21297824107293 104.58912117488603 107.49297454195366 C 0.0 **** -0.24
1947 H 111.31082357890804 104.15088990829838 107.92078466207727 H 0.0 **** 0.06
1948 H 112.44469646600157 105.52055068295431 108.01077946251092 H 0.0 **** 0.06
1949 H 112.04981862202746 104.79246711633868 106.43452685504118 H 0.0 **** 0.06
1950 H 113.04330379724291 103.89311685113961 107.60569319974672 H 0.0 **** 0.06
1951 C 112.01559522252836 116.63280594835174 0.27192376517086814 C 0.0 **** -0.24
1952 H 112.6748413732434 116.06078632646441 -0.3809829616133129 H 0.0 **** 0.06
1953 H 111.04307525831905 116.14253607172404 0.3257154868842349 H 0.0 **** 0.06
1954 H 111.89410268164227 117.63980070008867 -0.12495551364241919 H 0.0 **** 0.06
1955 H 112.45056063970719 116.68600452233702 1.2700550877974592 H 0.0 **** 0.06
1956 C 25.94356277891933 114.42079885980654 111.56194932579038 C 0.0 **** -0.24
1957 H 25.17260299732814 114.8142369731743 110.89900466239263 H 0.0 **** 0.06
1958 H 26.882307758069203 114.94226278433266 111.37742745914596 H 0.0 **** 0.06
1959 H 26.07569557844414 113.35501451805183 111.37158159646526 H 0.0 **** 0.06
1960 H 25.642117406996135 114.56951611260854 112.5987935723736 H 0.0 **** 0.06
1961 C 98.4079939532003 104.06456644875524 55.91281191936034 C 0.0 **** -0.24
1962 H 98.42576449269635 103.68141920191522 56.933330194844274 H 0.0 **** 0.06
1963 H 99.11198183080319 104.89301057311422 55.8234551604948 H 0.0 **** 0.06
1964 H 97.40349217559819 104.413868326022 55.67409555643829 H 0.0 **** 0.06
1965 H 98.69084847395038 103.2700023222072 55.22177621790149 H 0.0 **** 0.06
1966 C 62.38978503094876 34.0241912402347 84.141720170485 C 0.0 **** -0.24
1967 H 61.61564479422145 34.13501268538471 84.90132971290856 H 0.0 **** 0.06
1968 H 62.82508723345882 34.99854930572343 83.92097268269126 H 0.0 **** 0.06
1969 H 61.95126448098375 33.60723229149011 83.23466938049577 H 0.0 **** 0.06
1970 H 63.16699729492166 33.35399626759721 84.51019265795841 H 0.0 **** 0.06
1971 C 13.445570514842501 46.11701243201752 27.83230683040594 C 0.0 **** -0.24
1972 H 13.823075614372982 46.302614145666325 28.83783804821315 H 0.0 **** 0.06
1973 H 14.21499428031322 46.3706045856973 27.103579050739256 H 0.0 **** 0.06
1974 H 12.561408823366293 46.73041334445406 27.65782023403876 H 0.0 **** 0.06
1975 H 13.18232427092525 45.0635494503753 27.732821457866358 H 0.0 **** 0.06
1976 C 5.12827252255488 80.53921131169727 86.45457278670057 C 0.0 **** -0.24
1977 H 5.972893439117527 81.22768038882191 86.44883453198327 H 0.0 **** 0.06
1978 H 4.497671965349312 80.74415675346006 87.31986143677881 H 0.0 **** 0.06
1979 H 5.49641385445949 79.51363744384884 86.50841931703349 H 0.0 **** 0.06
1980 H 4.547775397507266 80.66909193574037 85.54136841585233 H 0.0 **** 0.06
1981 C 15.008060674319836 49.11412320796518 27.36487863475827 C 0.0 **** -0.24
1982 H 14.02522427074237 49.15521262893489 26.896102191551137 H 0.0 **** 0.06
1983 H 15.441986152648582 50.11496869178359 27.38644843925303 H 0.0 **** 0.06
1984 H 15.655420535485774 48.44965252962592 26.793963606108747 H 0.0 **** 0.06
1985 H 14.908893690014594 48.738622904447396 28.383792571989574 H 0.0 **** 0.06
1986 C 18.096090380840792 17.663094885802707 119.12774907139837 C 0.0 **** -0.24
1987 H 19.04046910697153 18.186005899885245 118.9784440380739 H 0.0 **** 0.06
1988 H 17.446041138545382 18.261914697703787 119.76595825693046 H 0.0 **** 0.06
1989 H 18.28625817276756 16.700651128708017 119.60436363172 H 0.0 **** 0.06
1990 H 17.613031150281785 17.502002744401707 118.1638656522747 H 0.0 **** 0.06
1991 C 36.68944978655027 57.82947815706507 47.50673581985261 C 0.0 **** -0.24
1992 H 35.822696036322256 58.465884845649555 47.68264358871076 H 0.0 **** 0.06
1993 H 36.50783535194828 57.20141961466953 46.63342378763237 H 0.0 **** 0.06
1994 H 36.85978193798246 57.19862282419422 48.37916211314436 H 0.0 **** 0.06
1995 H 37.567068634248294 58.45167543357212 47.33039848649756 H 0.0 **** 0.06
1996 C 54.67425870921772 25.4864741303017 38.625991954545015 C 0.0 **** -0.24
1997 H 54.748018523519654 26.519145794806064 38.96633417784656 H 0.0 **** 0.06
1998 H 55.669301348129345 25.113459472624328 38.38207726301144 H 0.0 **** 0.06
1999 H 54.04115547185993 25.44016421871636 37.739635457803686 H 0.0 **** 0.06
2000 H 54.23989162487417 24.874115912913936 39.41542321156052 H 0.0 **** 0.06
2001 C 99.53279454823866 23.339210962716777 16.06734585246264 C 0.0 **** -0.24
2002 H 99.63567111083628 24.175828685694114 15.376892175859233 H 0.0 **** 0.06
2003 H 98.78461504096563 23.581374076090356 16.822631641672174 H 0.0 **** 0.06
2004 H 100.49051601320213 23.147980635371823 16.55238269630088 H 0.0 **** 0.06
2005 H 99.22019669733427 22.451095941319124 15.518282639124042 H 0.0 **** 0.06
2006 C 92.1489472623295 62.47071492321418 103.42405485052169 C 0.0 **** -0.24
2007 H 91.80714090788359 62.328438216961594 104.44991690752639 H 0.0 **** 0.06
2008 H 92.93605676507451 61.749822816118886 103.20004502404066 H 0.0 **** 0.06
2009 H 92.53891515397311 63.48172297619826 103.3087775503312 H 0.0 **** 0.06
2010 H 91.31421948297321 62.32217103557476 102.73953141170426 H 0.0 **** 0.06
2011 C 121.05454920192884 74.9949098489835 105.36887392855641 C 0.0 **** -0.24
2012 H 120.26384326125537 75.73203249687427 105.50571837077632 H 0.0 **** 0.06
2013 H 121.63119485008463 74.90602481913277 106.28982691506724 H 0.0 **** 0.06
2014 H 121.70987364943505 75.31245865841069 104.55737236274626 H 0.0 **** 0.06
2015 H 120.61206652413904 74.02990336640116 105.12162567120834 H 0.0 **** 0.06
2016 C 19.643404310772148 21.65341197777957 96.96920276410242 C 0.0 **** -0.24
2017 H 19.861920936721358 20.714637622251928 96.4613797068161 H 0.0 **** 0.06
2018 H 19.404901068143726 22.41960461590037 96.23115858939525 H 0.0 **** 0.06
2019 H 20.513281610017966 21.96417095718317 97.5474496349471 H 0.0 **** 0.06
2020 H 18.793140998591163 21.51519609759157 97.6377503315216 H 0.0 **** 0.06
2021 C 60.592742725891505 112.09107751258622 108.7160003207394 C 0.0 **** -0.24
2022 H 60.33103985002145 111.77135340494885 109.72540277393719 H 0.0 **** 0.06
2023 H 61.338198525576225 112.88368286815796 108.76831141035444 H 0.0 **** 0.06
2024 H 59.70119216583357 112.46241778536144 108.2105657192844 H 0.0 **** 0.06
2025 H 60.99890491696947 111.24437336088229 108.1617616210512 H 0.0 **** 0.06
2026 C 12.43348566884394 31.46362327405086 111.7303802831398 C 0.0 **** -0.24
2027 H 12.346344257724269 32.27000079751838 111.00206592578746 H 0.0 **** 0.06
2028 H 12.11906542453913 30.525206212157514 111.27275871277459 H 0.0 **** 0.06
2029 H 11.79855542545338 31.680561103250852 112.58969263729509 H 0.0 **** 0.06
2030 H 13.470328659844679 31.380344736378447 112.05650056637447 H 0.0 **** 0.06
2031 C 84.50282322030023 121.47097893614435 24.590733129429367 C 0.0 **** -0.24
2032 H 84.89745795633362 121.09522469030117 23.646429507319674 H 0.0 **** 0.06
2033 H 85.06045347207555 122.36034828084982 24.88829309308594 H 0.0 **** 0.06
2034 H 84.60523595508155 120.70362448294573 25.35825571624342 H 0.0 **** 0.06
2035 H 83.45081663347716 121.7258315386592 24.469162864749244 H 0.0 **** 0.06
2036 C 60.313957133511224 25.36445333882768 10.936702380776524 C 0.0 **** -0.24
2037 H 60.88699714457164 25.612508016036173 11.83069298972299 H 0.0 **** 0.06
2038 H 60.74003274089927 24.476846333598168 10.467591961740254 H 0.0 **** 0.06
2039 H 60.35362598641643 26.199627598991967 10.237059976773622 H 0.0 **** 0.06
2040 H 59.27755608229131 25.16925014286293 11.211084723240106 H 0.0 **** 0.06
2041 C 40.44127573016695 80.3666217956632 3.5509683294946655 C 0.0 **** -0.24
2042 H 40.555262786630095 79.99905609265903 2.531241147805048 H 0.0 **** 0.06
2043 H 40.68921544997997 79.5707063670136 4.253970259905444 H 0.0 **** 0.06
2044 H 39.410778963231905 80.68433519192729 3.7098227917030755 H 0.0 **** 0.06
2045 H 41.11079826704025 81.21232960364694 3.7085405887026752 H 0.0 **** 0.06
2046 C 17.910435028546516 0.4546397987574835 30.574993875828056 C 0.0 **** -0.24
2047 H 17.711679786455193 1.0811311049549204 31.444302280988268 H 0.0 **** 0.06
2048 H 17.48266582042163 0.919644130213598 29.68559648175483 H 0.0 **** 0.06
2049 H 17.46068997572422 -0.5270649518497095 30.72397812086126 H 0.0 **** 0.06
2050 H 18.987845005686637 0.34483214354602865 30.445262468419358 H 0.0 **** 0.06
2051 C 106.3705637290812 76.52844763805811 81.34428942961122 C 0.0 **** -0.24
2052 H 106.14274473608859 77.50480122828887 81.77129677034083 H 0.0 **** 0.06
2053 H 106.41300998001543 75.78388079212215 82.13933072808604 H 0.0 **** 0.06
2054 H 107.33245239448084 76.57086712026336 80.83368009511835 H 0.0 **** 0.06
2055 H 105.59326195802589 76.25407978994429 80.63053567986896 H 0.0 **** 0.06
2056 C 46.993109662710424 63.276620715756394 87.37295532534955 C 0.0 **** -0.24
2057 H 46.22903472959815 63.38998801883196 88.14168964433097 H 0.0 **** 0.06
2058 H 47.90873479785358 62.89620657088409 87.824450346645 H 0.0 **** 0.06
2059 H 47.18956282954013 64.24443104941366 86.91029723640716 H 0.0 **** 0.06
2060 H 46.6434936060771 62.57572970983696 86.61384029403544 H 0.0 **** 0.06
2061 C 10.67892370291031 47.322994188196986 83.72126813759334 C 0.0 **** -0.24
2062 H 10.942326082284126 48.03541676859416 84.50287569118632 H 0.0 **** 0.06
2063 H 10.974983973258361 46.3196066924892 84.02948405717066 H 0.0 **** 0.06
2064 H 11.197357777022944 47.587376953362934 82.79863110430605 H 0.0 **** 0.06
2065 H 9.602730659578185 47.34958230306313 83.55263334848397 H 0.0 **** 0.06
2066 C 113.36201108613989 22.28458598738331 100.73476892366546 C 0.0 **** -0.24
2067 H 112.40046485612754 22.456772181570727 101.21887729768048 H 0.0 **** 0.06
2068 H 113.24749010341787 21.529222310690756 99.95844058241732 H 0.0 **** 0.06
2069 H 114.08442369058085 21.940486884234502 101.47447354633755 H 0.0 **** 0.06
2070 H 113.71438472720618 23.214703890421845 100.28781961401023 H 0.0 **** 0.06
2071 C 49.07728679460273 10.246843992329246 61.72312760304189 C 0.0 **** -0.24
2072 H 48.04629232810621 10.414061918025027 62.03505661828552 H 0.0 **** 0.06
2073 H 49.3142449452927 9.185936637486265 61.80637167942402 H 0.0 **** 0.06
2074 H 49.74792452339814 10.821446247680313 62.36284353437472 H 0.0 **** 0.06
2075 H 49.20087267606609 10.56690786147675 60.68834366405676 H 0.0 **** 0.06
2076 C 9.451362109338419 12.317755495111264 109.99527579001128 C 0.0 **** -0.24
2077 H 8.514681602123375 12.709981757941858 109.59882739375425 H 0.0 **** 0.06
2078 H 9.409186430730102 11.22866334849795 110.01588282366748 H 0.0 **** 0.06
2079 H 9.603654163610514 12.695040077858685 111.00651443891985 H 0.0 **** 0.06
2080 H 10.276649533284 12.637692779295872 109.3593851427687 H 0.0 **** 0.06
2081 C 56.08983975726665 101.38418462506232 51.218471416139565 C 0.0 **** -0.24
2082 H 56.25518187031121 101.65408059485685 52.26191011928675 H 0.0 **** 0.06
2083 H 57.04322897488999 101.36870541739029 50.69101953809254 H 0.0 **** 0.06
2084 H 55.429296184064206 102.11706244936423 50.7548245375604 H 0.0 **** 0.06
2085 H 55.629548590759605 100.39741186650238 51.16843449430553 H 0.0 **** 0.06
2086 C 51.715893163708955 72.81507972249929 5.650726919351655 C 0.0 **** -0.24
2087 H 51.211765465996706 71.920725346383 5.28544674359847 H 0.0 **** 0.06
2088 H 52.572992738004444 72.52730507857245 6.259267948288425 H 0.0 **** 0.06
2089 H 51.02261078733852 73.40206898465146 6.254338849403723 H 0.0 **** 0.06
2090 H 52.054778560268886 73.41220885108257 4.8037454208163695 H 0.0 **** 0.06
2091 C 43.98131196727766 38.506775040110625 3.2112543632858372 C 0.0 **** -0.24
2092 H 45.01222873631977 38.25891982423181 3.4641664844840125 H 0.0 **** 0.06
2093 H 43.353968481635064 37.624630207673334 3.341737356944158 H 0.0 **** 0.06
2094 H 43.93237432558297 38.838049446051485 2.1734501601608933 H 0.0 **** 0.06
2095 H 43.628908710559855 39.30506846013262 3.8647524218713194 H 0.0 **** 0.06
2096 C 114.84111033058704 18.758007248006663 117.51069308039155 C 0.0 **** -0.24
2097 H 115.16635336713409 19.784753115585488 117.34346565588118 H 0.0 **** 0.06
2098 H 115.65429078998767 18.07484182295633 117.2647587567377 H 0.0 **** 0.06
2099 H 113.98059522436867 18.542079676579803 116.87837899716538 H 0.0 **** 0.06
2100 H 114.56391256688761 18.631709728842964 118.55779934426494 H 0.0 **** 0.06
2101 C 57.22270592793856 84.04566073071243 91.51611321727967 C 0.0 **** -0.24
2102 H 56.41331909953382 84.62672842614188 91.07479995988706 H 0.0 **** 0.06
2103 H 56.81254539653736 83.1545358184328 91.99151396570338 H 0.0 **** 0.06
2104 H 57.73947574906322 84.6509792314759 92.26197425430786 H 0.0 **** 0.06
2105 H 57.92536349985329 83.7518005922334 90.7363147251258 H 0.0 **** 0.06
2106 C 106.47512972746136 5.218599876727808 0.41772012199075803 C 0.0 **** -0.24
2107 H 105.60587970111891 4.813108290306303 -0.0986479769509252 H 0.0 **** 0.06
2108 H 107.01368795256718 4.411027458101131 0.9138974825101318 H 0.0 **** 0.06
2109 H 106.14918537928179 5.946967160321719 1.1607837502981564 H 0.0 **** 0.06
2110 H 107.13221401913489 5.705116484309286 -0.30281018727368547 H 0.0 **** 0.06
2111 C 115.06953818241834 99.86731494559012 1.9362319181510799 C 0.0 **** -0.24
2112 H 114.17820617438377 100.16782985390873 1.3853951219434038 H 0.0 **** 0.06
2113 H 115.95769784896504 100.15452566690965 1.3724858809712224 H 0.0 **** 0.06
2114 H 115.06182097288456 98.78689562183203 2.0780262181319475 H 0.0 **** 0.06
2115 H 115.07958436136784 100.36186184753171 2.9070570897422137 H 0.0 **** 0.06
2116 C 70.63883482640347 12.773657110161167 35.23781310393065 C 0.0 **** -0.24
2117 H 70.13592999319141 13.650400554836722 35.646142385843234 H 0.0 **** 0.06
2118 H 70.32496839349639 12.624474867576424 34.204151306073584 H 0.0 **** 0.06
2119 H 70.37537282235493 11.89631036081903 35.82758383941757 H 0.0 **** 0.06
2120 H 71.71711391606195 12.92461982374229 35.271702788915746 H 0.0 **** 0.06
2121 C 112.96486366902732 68.71434813743124 102.54720531067304 C 0.0 **** -0.24
2122 H 113.34571474251695 68.98199428718695 101.56095067895575 H 0.0 **** 0.06
2123 H 112.93788674759206 69.60228910335852 103.17886045297186 H 0.0 **** 0.06
2124 H 113.61754785572361 67.96659932885822 102.99730549871688 H 0.0 **** 0.06
2125 H 111.95891812006722 68.30714269143908 102.44883677724744 H 0.0 **** 0.06
2126 C 25.939920746492362 69.70024101017154 101.4736100981425 C 0.0 **** -0.24
2127 H 25.593088630943328 69.86852128668306 102.49319303468744 H 0.0 **** 0.06
2128 H 27.02982129110478 69.66983441284279 101.46078749221118 H 0.0 **** 0.06
2129 H 25.591668138927048 70.50968929870024 100.83214637287557 H 0.0 **** 0.06
2130 H 25.545826200625243 68.75144531561622 101.10775846339007 H 0.0 **** 0.06
2131 C 81.42652067427926 109.00214869874779 89.85793968974355 C 0.0 **** -0.24
2132 H 81.99473390694104 109.87448091091073 90.18143525994506 H 0.0 **** 0.06
2133 H 80.6251766738608 108.80634932541867 90.57042655200348 H 0.0 **** 0.06
2134 H 82.08737606675851 108.1368837935095 89.80634587620543 H 0.0 **** 0.06
2135 H 80.99887266883636 109.19198891712978 88.87267571945861 H 0.0 **** 0.06
2136 C 94.10600276951487 74.16842497067802 19.130209405867333 C 0.0 **** -0.24
2137 H 93.15573540341333 74.6303538421829 18.86060815655216 H 0.0 **** 0.06
2138 H 94.10187433976185 73.12219996140115 18.82293206143845 H 0.0 **** 0.06
2139 H 94.24745639598459 74.23148874773852 20.209036985666614 H 0.0 **** 0.06
2140 H 94.9193888140081 74.69169176169058 18.62634612789671 H 0.0 **** 0.06
2141 C 80.56807552247966 53.422080187203846 83.90851870818517 C 0.0 **** -0.24
2142 H 79.85114269881487 52.95765877837334 83.23060626981476 H 0.0 **** 0.06
2143 H 80.31405737423236 54.47415551544918 84.03904238835491 H 0.0 **** 0.06
2144 H 81.57076774426571 53.34004721999975 83.48848650157493 H 0.0 **** 0.06
2145 H 80.53524385323394 52.91675154682525 84.87334622265212 H 0.0 **** 0.06
2146 C 20.9867879350806 89.08707192796956 50.372772763829175 C 0.0 **** -0.24
2147 H 21.120311227118805 88.58004913093549 49.416934091988054 H 0.0 **** 0.06
2148 H 20.747255066035905 88.35415635031052 51.1428376043128 H 0.0 **** 0.06
2149 H 20.17315118645871 89.80729866082302 50.290579154305334 H 0.0 **** 0.06
2150 H 21.906581548673444 89.60766215383629 50.639254754155814 H 0.0 **** 0.06
2151 C 63.00690731132511 45.3174599846879 119.80792276232751 C 0.0 **** -0.24
2152 H 63.23212858814162 45.07024470600615 118.77035005259586 H 0.0 **** 0.06
2153 H 62.34582107838958 46.18395245634608 119.83927493357623 H 0.0 **** 0.06
2154 H 63.932933397619195 45.546846331544174 120.3350780684313 H 0.0 **** 0.06
2155 H 62.517985152711674 44.4679191134212 120.28460143141922 H 0.0 **** 0.06
2156 C 120.55390015241514 10.618897502527062 116.63654524034234 C 0.0 **** -0.24
2157 H 121.61642715699513 10.835707703652588 116.53021657838929 H 0.0 **** 0.06
2158 H 120.18386324761718 10.156978457864028 115.72105431626406 H 0.0 **** 0.06
2159 H 120.0116948175958 11.545553995149703 116.82119673590421 H 0.0 **** 0.06
2160 H 120.40361538745265 9.937349853442043 117.47371333081168 H 0.0 **** 0.06
2161 C 91.78124468069149 96.35751465090073 77.36185119396384 C 0.0 **** -0.24
2162 H 92.8372837689387 96.3055827397227 77.09713314845231 H 0.0 **** 0.06
2163 H 91.3004575859261 97.14650748350002 76.78266187628327 H 0.0 **** 0.06
2164 H 91.68418491738686 96.57628742674001 78.4245698412766 H 0.0 **** 0.06
2165 H 91.30385214966313 95.40303623335805 77.14116266927937 H 0.0 **** 0.06
2166 C 10.344087389417503 83.84309594673024 18.96344977642201 C 0.0 **** -0.24
2167 H 10.393325552495448 82.96289522192819 18.323148000501334 H 0.0 **** 0.06
2168 H 9.390725455594843 83.85590673554583 19.491608872802118 H 0.0 **** 0.06
2169 H 10.433101317016142 84.74222179174998 18.35268105075545 H 0.0 **** 0.06
2170 H 11.160203548170134 83.81358211494782 19.68613749531835 H 0.0 **** 0.06
2171 C 72.1208398678192 86.92879437799155 84.02923136870862 C 0.0 **** -0.24
2172 H 71.47132337257062 86.5603159282314 84.82302672298698 H 0.0 **** 0.06
2173 H 72.85116350768192 86.16062544126896 83.7717588722424 H 0.0 **** 0.06
2174 H 72.64073776247906 87.82398507786425 84.37194404036296 H 0.0 **** 0.06
2175 H 71.52115555587051 87.16992296075225 83.15111810542714 H 0.0 **** 0.06
2176 C 32.74975129764778 27.65615526026337 92.16341157533788 C 0.0 **** -0.24
2177 H 31.92655951818284 28.003055466485158 92.78836252947232 H 0.0 **** 0.06
2178 H 32.48474538591984 27.776832853681967 91.11320783654224 H 0.0 **** 0.06
2179 H 32.94372323866628 26.604000796972144 92.37136827595873 H 0.0 **** 0.06
2180 H 33.64337840048623 28.240958669334525 92.38307209204973 H 0.0 **** 0.06
2181 C 94.98185919464925 87.95199156010057 69.04005350709022 C 0.0 **** -0.24
2182 H 94.46270882421652 88.39335282637074 69.89127809498581 H 0.0 **** 0.06
2183 H 94.33168530821683 87.97643961986367 68.16534134988026 H 0.0 **** 0.06
2184 H 95.24456678467851 86.91963863565218 69.27022577055183 H 0.0 **** 0.06
2185 H 95.88902712556927 88.52017472618783 68.83345877263275 H 0.0 **** 0.06
2186 C 28.826515768511 57.19323197141367 50.29722177914303 C 0.0 **** -0.24
2187 H 29.63749856425676 56.584633544665024 50.69850976247139 H 0.0 **** 0.06
2188 H 28.686385787316595 56.96169382720265 49.241294787224575 H 0.0 **** 0.06
2189 H 29.07651675734229 58.249303263101496 50.408186515760974 H 0.0 **** 0.06
2190 H 27.907191350144785 56.9783861479313 50.8421107784805 H 0.0 **** 0.06
2191 C 31.27437271249468 69.26126567893056 52.10180968585655 C 0.0 **** -0.24
2192 H 31.4746633415916 68.66950167050197 51.20831364162797 H 0.0 **** 0.06
2193 H 32.21880584474271 69.55949015613885 52.55878609554969 H 0.0 **** 0.06
2194 H 30.700596278739724 68.66489523679627 52.81090911928453 H 0.0 **** 0.06
2195 H 30.70521267019754 70.14989439532832 51.82963518957388 H 0.0 **** 0.06
2196 C 5.883751946721478 9.45428083683538 45.84144535395046 C 0.0 **** -0.24
2197 H 6.1084494170266055 8.455321552582319 45.46768269580306 H 0.0 **** 0.06
2198 H 5.374546677533321 10.026284259922534 45.06434990786971 H 0.0 **** 0.06
2199 H 6.811526144640087 9.957913092475565 46.11313768880203 H 0.0 **** 0.06
2200 H 5.240565716455823 9.378066438438594 46.717647909943395 H 0.0 **** 0.06
2201 C 76.73953466624008 1.8719882506534304 88.31940412353586 C 0.0 **** -0.24
2202 H 75.82536089605446 1.2849263971737486 88.4017313563321 H 0.0 **** 0.06
2203 H 76.77381247671579 2.60434431447203 89.1264907369299 H 0.0 **** 0.06
2204 H 76.75483497753484 2.388560720614592 87.35974694075742 H 0.0 **** 0.06
2205 H 77.60396726038843 1.2124202904739576 88.39047790162596 H 0.0 **** 0.06
2206 C 90.8350756033972 17.14505522875919 86.02654485574683 C 0.0 **** -0.24
2207 H 91.1509519505976 18.136209131724343 86.35157744913906 H 0.0 **** 0.06
2208 H 91.03560164657804 16.421966513716143 86.81802462399725 H 0.0 **** 0.06
2209 H 91.38696033413305 16.864211679523123 85.12944659951148 H 0.0 **** 0.06
2210 H 89.76800033629377 17.157173627452664 85.80682095925795 H 0.0 **** 0.06
2211 C 78.26373714685784 93.31545224132068 55.112613590619645 C 0.0 **** -0.24
2212 H 77.59440970264444 92.67389680226287 54.540300331716736 H 0.0 **** 0.06
2213 H 77.78069623532826 93.60036495216238 56.04856470473689 H 0.0 **** 0.06
2214 H 78.49138030306025 94.21162487280489 54.53385678717663 H 0.0 **** 0.06
2215 H 79.18714574927162 92.77763316470973 55.328315567551385 H 0.0 **** 0.06
2216 C 63.53725836520192 16.902568760070466 120.43390726231925 C 0.0 **** -0.24
2217 H 62.673336608791146 16.67437790386998 119.8102685691783 H 0.0 **** 0.06
2218 H 63.71795121574519 17.97807733990595 120.42358282567928 H 0.0 **** 0.06
2219 H 64.41256401992342 16.382022399098304 120.04623783121724 H 0.0 **** 0.06
2220 H 63.343647226753944 16.57660102180145 121.45554166610172 H 0.0 **** 0.06
2221 C 79.58009388054577 98.26657131846838 93.41362356263963 C 0.0 **** -0.24
2222 H 80.00220136107308 97.3017148253592 93.13413420050938 H 0.0 **** 0.06
2223 H 80.33504437464168 98.85591248567331 93.93459371681931 H 0.0 **** 0.06
2224 H 78.72268379193565 98.11299176588702 94.06880093113028 H 0.0 **** 0.06
2225 H 79.26108928587007 98.79673962407534 92.51630658361523 H 0.0 **** 0.06
2226 C 99.64862491672497 73.84633203565033 98.4530372581684 C 0.0 **** -0.24
2227 H 100.5816252488492 74.14182015438575 97.97377819764651 H 0.0 **** 0.06
2228 H 98.93352719020996 74.66735837082194 98.3925295421339 H 0.0 **** 0.06
2229 H 99.83743890842064 73.60454794906525 99.49869773294023 H 0.0 **** 0.06
2230 H 99.24184944182011 72.97179067782463 97.94574323136155 H 0.0 **** 0.06
2231 C 61.88554809715588 122.18350134683925 50.22516548866092 C 0.0 **** -0.24
2232 H 61.63776245733313 121.14876298184936 50.46331661820838 H 0.0 **** 0.06
2233 H 61.90088170708311 122.31282506362939 49.14292688685415 H 0.0 **** 0.06
2234 H 62.86642729286333 122.42524849664738 50.63436280397386 H 0.0 **** 0.06
2235 H 61.13734395985826 122.84494505835946 50.66012850537587 H 0.0 **** 0.06
2236 C 55.64154277640213 105.54121758495123 53.26930984413008 C 0.0 **** -0.24
2237 H 54.64770261029972 105.25831096454834 53.61619411362204 H 0.0 **** 0.06
2238 H 55.671609035308364 105.50056696099378 52.180438556401384 H 0.0 **** 0.06
2239 H 56.379065869091875 104.85085432782802 53.67934206429476 H 0.0 **** 0.06
2240 H 55.86738482790557 106.55449919946213 53.60245831199251 H 0.0 **** 0.06
2241 C 7.737439371385602 25.840486109310177 63.58369170730408 C 0.0 **** -0.24
2242 H 7.5208754307260435 24.79250845925614 63.789312709836416 H 0.0 **** 0.06
2243 H 7.886501604748634 26.371909393240173 64.52344585302257 H 0.0 **** 0.06
2244 H 6.9004113473204605 26.28472225405278 63.04337461147811 H 0.0 **** 0.06
2245 H 8.640054317849039 25.913751088744533 62.97743466282095 H 0.0 **** 0.06
2246 C 65.31925704348583 78.6326184590086 34.42434490435207 C 0.0 **** -0.24
2247 H 66.20207301357686 78.03894560782487 34.66255208934771 H 0.0 **** 0.06
2248 H 64.81701950852403 78.92183403114808 35.34819933681641 H 0.0 **** 0.06
2249 H 64.63976479671535 78.04362087049219 33.80979860355535 H 0.0 **** 0.06
2250 H 65.62050776735455 79.5273941030652 33.8781693233538 H 0.0 **** 0.06
2251 C 82.13865429310673 61.56824991315136 108.76299291432167 C 0.0 **** -0.24
2252 H 82.99970121119196 62.13088631582974 109.12206191185336 H 0.0 **** 0.06
2253 H 81.36429290415836 61.56102142493717 109.53037048933794 H 0.0 **** 0.06
2254 H 82.43997322361449 60.5451705229076 108.54005224609821 H 0.0 **** 0.06
2255 H 81.74932276460532 62.03798008240125 107.85951868681593 H 0.0 **** 0.06
2256 C 44.6023665642116 110.42926042382902 60.41501438778181 C 0.0 **** -0.24
2257 H 44.69969583484903 110.7167560880319 59.36737634311331 H 0.0 **** 0.06
2258 H 43.55391228413669 110.4785395500619 60.70844802923608 H 0.0 **** 0.06
2259 H 45.1860418709495 111.11026780676372 61.03392890244109 H 0.0 **** 0.06
2260 H 44.96995078673797 109.41202231957547 60.54735700740159 H 0.0 **** 0.06
2261 C 13.612772367236886 67.87533070956417 101.18732063153294 C 0.0 **** -0.24
2262 H 14.48594178382487 67.44930680412517 100.69384936194669 H 0.0 **** 0.06
2263 H 13.934919138940103 68.60672320009186 101.92834465020235 H 0.0 **** 0.06
2264 H 13.050909121111914 67.08167351604965 101.67996765630369 H 0.0 **** 0.06
2265 H 12.978776094429662 68.36288236197248 100.44671868445153 H 0.0 **** 0.06
2266 C 81.89287328591806 61.72687681885686 49.87698776275613 C 0.0 **** -0.24
2267 H 82.24927768361283 60.6971282353879 49.875627387048894 H 0.0 **** 0.06
2268 H 81.75322809998437 62.061165668824735 50.90492419311548 H 0.0 **** 0.06
2269 H 80.94357649000108 61.78265137440018 49.3445359777119 H 0.0 **** 0.06
2270 H 82.6244122473143 62.366516419550514 49.38289052942193 H 0.0 **** 0.06
2271 C 78.86050628936599 10.80342513268809 104.67451736079448 C 0.0 **** -0.24
2272 H 79.73847100055201 10.50931627120218 104.09904703654036 H 0.0 **** 0.06
2273 H 78.49146837721912 9.944128743565585 105.23641146710997 H 0.0 **** 0.06
2274 H 78.08333832733962 11.15578782179665 103.99682821020926 H 0.0 **** 0.06
2275 H 79.12993129069014 11.60171135233071 105.36574263792565 H 0.0 **** 0.06
2276 C 101.4816677798909 21.385181525570857 26.041734523782907 C 0.0 **** -0.24
2277 H 100.53336151372082 21.37613660976433 26.579245969548936 H 0.0 **** 0.06
2278 H 101.4101383349579 20.737187754563877 25.16767514943467 H 0.0 **** 0.06
2279 H 102.27446580741528 21.024938935120645 26.697919509970745 H 0.0 **** 0.06
2280 H 101.70915588926619 22.402084557264516 25.722906232245123 H 0.0 **** 0.06
2281 C 70.28769706725055 83.69961408378865 64.00495285507279 C 0.0 **** -0.24
2282 H 70.6829057444065 84.41549419107099 64.72493399640786 H 0.0 **** 0.06
2283 H 69.27946911195556 83.99502150581714 63.71537739214957 H 0.0 **** 0.06
2284 H 70.25957893450624 82.70774245119412 64.45674616888093 H 0.0 **** 0.06
2285 H 70.92813721891864 83.67879379471131 63.123489851079604 H 0.0 **** 0.06
2286 C 98.35297303831169 63.70699796987852 51.13488842962306 C 0.0 **** -0.24
2287 H 98.95315284880104 62.79804427390953 51.095984792613685 H 0.0 **** 0.06
2288 H 97.3665842654255 63.50861860292512 50.713463411895184 H 0.0 **** 0.06
2289 H 98.84320234163587 64.49118419675582 50.55851070066169 H 0.0 **** 0.06
2290 H 98.24749190281355 64.02833274050079 52.17083137891025 H 0.0 **** 0.06
2291 C 31.18004537618208 48.646774134487345 104.01746321950407 C 0.0 **** -0.24
2292 H 31.484378330644915 47.9594576397101 104.80773956296827 H 0.0 **** 0.06
2293 H 30.464872258135244 49.36572576486392 104.41886597317415 H 0.0 **** 0.06
2294 H 30.71500986405249 48.084797734228594 103.20781477758274 H 0.0 **** 0.06
2295 H 32.0544362832531 49.17518980410612 103.63827656237379 H 0.0 **** 0.06
2296 C 114.33544757758125 114.76860686745613 86.78226562648149 C 0.0 **** -0.24
2297 H 115.31603407222516 114.97180880198862 86.35073893839683 H 0.0 **** 0.06
2298 H 113.58379085454358 115.37568716662948 86.27882869112159 H 0.0 **** 0.06
2299 H 114.34918653070025 115.0141983580965 87.84451947264557 H 0.0 **** 0.06
2300 H 114.0950849013424 113.71283070757633 86.65579574242929 H 0.0 **** 0.06
2301 C 89.52673052355837 44.80914343794325 40.7876367239632 C 0.0 **** -0.24
2302 H 88.97519787722408 43.95530897946901 41.181782144861415 H 0.0 **** 0.06
2303 H 89.06707920287766 45.13816520649766 39.85491353537856 H 0.0 **** 0.06
2304 H 90.56118677269691 44.51969273902853 40.601685895808714 H 0.0 **** 0.06
2305 H 89.50129333821917 45.62395675958777 41.51206021849737 H 0.0 **** 0.06
2306 C 83.43133215921642 78.62074991897859 41.82674013488344 C 0.0 **** -0.24
2307 H 83.67579314275741 79.06269427402174 42.79240835701327 H 0.0 **** 0.06
2308 H 84.33899368830151 78.23730359182551 41.36169224603282 H 0.0 **** 0.06
2309 H 82.98500444105792 79.37912744350234 41.184024653595316 H 0.0 **** 0.06
2310 H 82.72289604139252 77.80401570163065 41.970836294539595 H 0.0 **** 0.06
2311 C 105.34493403531692 50.30833002091475 54.140589266805506 C 0.0 **** -0.24
2312 H 105.1533781588451 51.260704888104954 54.6355565598123 H 0.0 **** 0.06
2313 H 106.27301919404837 50.374842217313244 53.57204177922887 H 0.0 **** 0.06
2314 H 104.52044686907186 50.0770748980658 53.46682591028889 H 0.0 **** 0.06
2315 H 105.43398407012356 49.52167781181896 54.890549654427446 H 0.0 **** 0.06
2316 C 114.72335797401291 22.525537372310282 96.66031275734323 C 0.0 **** -0.24
2317 H 113.77159283335851 22.793074293640757 96.20264674980402 H 0.0 **** 0.06
2318 H 114.65385229641194 22.64877764632348 97.74096853507274 H 0.0 **** 0.06
2319 H 115.50933168430271 23.17243381759431 96.27023653288023 H 0.0 **** 0.06
2320 H 114.95835489573818 21.486481954582473 96.42742550972673 H 0.0 **** 0.06
2321 C 113.1819129659327 8.497837382350525 113.95234485177346 C 0.0 **** -0.24
2322 H 113.79368036856471 8.2156452791005 113.09640600865828 H 0.0 **** 0.06
2323 H 112.17081678376152 8.73013894149662 113.61566739450979 H 0.0 **** 0.06
2324 H 113.6147567075636 9.374386340883945 114.43494652523356 H 0.0 **** 0.06
2325 H 113.1478189885874 7.671709104940788 114.66297895568039 H 0.0 **** 0.06
2326 C 45.81441540892445 10.221131189420461 98.5504251320445 C 0.0 **** -0.24
2327 H 45.82431782748688 9.501411439693918 97.7318107174053 H 0.0 **** 0.06
2328 H 44.80699181740235 10.292196675407052 98.9597019299633 H 0.0 **** 0.06
2329 H 46.12609240828141 11.197427178836083 98.17868094604592 H 0.0 **** 0.06
2330 H 46.50220527964464 9.893503780775163 99.33040496558874 H 0.0 **** 0.06
2331 C 106.7956678003022 80.22828533008698 33.53390303528446 C 0.0 **** -0.24
2332 H 106.7232760576988 81.2536969978658 33.1712799775199 H 0.0 **** 0.06
2333 H 107.03316367544573 80.23592745010427 34.59803717988118 H 0.0 **** 0.06
2334 H 107.58061302358624 79.70389101846473 32.98974434212854 H 0.0 **** 0.06
2335 H 105.84381446846686 79.72071173077569 33.37730351630152 H 0.0 **** 0.06
2336 C 20.29973096975334 116.77296817447939 66.42736908067528 C 0.0 **** -0.24
2337 H 19.906984722830373 116.33265261419308 67.34377985798068 H 0.0 **** 0.06
2338 H 20.377691218426065 117.85311705920176 66.54795794087568 H 0.0 **** 0.06
2339 H 19.62745777157636 116.54700715081398 65.59856174859652 H 0.0 **** 0.06
2340 H 21.28549429814855 116.35799400128381 66.21812471733466 H 0.0 **** 0.06
2341 C 112.03689847215608 60.78604036913803 69.4071484884515 C 0.0 **** -0.24
2342 H 112.48076570914358 60.041805438836455 68.74513381124831 H 0.0 **** 0.06
2343 H 111.01338737442705 60.494388964377656 69.64600138920841 H 0.0 **** 0.06
2344 H 112.0324829124213 61.75669573754468 68.91109224498635 H 0.0 **** 0.06
2345 H 112.62076781548001 60.84923554971875 70.32546112223042 H 0.0 **** 0.06
2346 C 99.19741046476139 17.21472566844139 9.87608177716345 C 0.0 **** -0.24
2347 H 99.04916585951233 16.925089195928507 10.91659098108886 H 0.0 **** 0.06
2348 H 99.11248953272681 16.334254914891375 9.238570319386554 H 0.0 **** 0.06
2349 H 100.18700161366411 17.65557452399503 9.759661319248494 H 0.0 **** 0.06
2350 H 98.4385207264281 17.944123576251712 9.591481649900487 H 0.0 **** 0.06
2351 C 96.81648837189599 2.391643926419192 118.61209371150397 C 0.0 **** -0.24
2352 H 97.51624960078169 3.03558268701633 118.07885056253221 H 0.0 **** 0.06
2353 H 96.39272166256549 2.9379817768449925 119.45526920260274 H 0.0 **** 0.06
2354 H 97.34065644495647 1.5090607694325229 118.97659727239937 H 0.0 **** 0.06
2355 H 96.01688887828473 2.0874394025031506 117.936428554479 H 0.0 **** 0.06
2356 C 27.89349636009581 75.03906600592367 13.99435930490364 C 0.0 **** -0.24
2357 H 27.38752087774526 74.8717138705241 14.945626485596165 H 0.0 **** 0.06
2358 H 28.288032261103865 74.09280678031703 13.623049358502499 H 0.0 **** 0.06
2359 H 28.712707455374698 75.74333208014579 14.137501117486408 H 0.0 **** 0.06
2360 H 27.185045034353692 75.44653417596169 13.27326393812615 H 0.0 **** 0.06
2361 C 48.33713414826997 19.452163997370093 43.85219058274387 C 0.0 **** -0.24
2362 H 49.09200104320436 19.035345939285037 44.51922493599753 H 0.0 **** 0.06
2363 H 47.711322202539804 20.15311055635999 44.405016491957895 H 0.0 **** 0.06
2364 H 47.71869084829355 18.647061767810612 43.455283264766734 H 0.0 **** 0.06
2365 H 48.8273776376723 19.9720284956137 43.02904153332196 H 0.0 **** 0.06
2366 C 37.23420055737455 104.68463881560658 20.423790739030068 C 0.0 **** -0.24
2367 H 37.207885697193916 105.26788783718456 21.343938664641428 H 0.0 **** 0.06
2368 H 38.27157307904804 104.49923403536144 20.141238844532538 H 0.0 **** 0.06
2369 H 36.73503428058987 105.23686860060278 19.628480522462453 H 0.0 **** 0.06
2370 H 36.72508164652157 103.73354380609752 20.58202596481803 H 0.0 **** 0.06
2371 C 105.87489192206175 62.938130596196565 85.50095334877162 C 0.0 **** -0.24
2372 H 106.26064347942668 63.95483336555133 85.5851164386936 H 0.0 **** 0.06
2373 H 104.96907064283894 62.94263820358008 84.89372795003888 H 0.0 **** 0.06
2374 H 105.64497430567368 62.55402529414187 86.49433398363794 H 0.0 **** 0.06
2375 H 106.62579433578333 62.30298560276797 85.03006845704482 H 0.0 **** 0.06
2376 C 65.60913437468747 27.858697786352423 93.9263141983335 C 0.0 **** -0.24
2377 H 65.00878193673572 28.278270896028232 94.73384222311881 H 0.0 **** 0.06
2378 H 66.58402621762798 27.56310087101815 94.315255763393 H 0.0 **** 0.06
2379 H 65.7404850368307 28.60803004377584 93.14587695823946 H 0.0 **** 0.06
2380 H 65.10261303373545 26.987207901483202 93.51258289373095 H 0.0 **** 0.06
2381 C 83.36169776941401 42.39228685740007 62.07142880479805 C 0.0 **** -0.24
2382 H 83.80715082195718 41.40643365301621 61.94300725084265 H 0.0 **** 0.06
2383 H 82.27748190743202 42.31431085164879 61.994990595775356 H 0.0 **** 0.06
2384 H 83.73290585557393 43.062921728358866 61.295284064156995 H 0.0 **** 0.06
2385 H 83.62993733068018 42.787303979010666 63.050947106848135 H 0.0 **** 0.06
2386 C 46.095070097522786 43.3054096829233 42.053334807751064 C 0.0 **** -0.24
2387 H 46.2779416431507 43.81365758919225 43.00015696623766 H 0.0 **** 0.06
2388 H 47.047092640689314 43.06661997599384 41.57881957490194 H 0.0 **** 0.06
2389 H 45.514516951782205 43.955469064414025 41.39879300512748 H 0.0 **** 0.06
2390 H 45.53993799936478 42.38587812024532 42.23674185769108 H 0.0 **** 0.06
2391 C 108.3363288488514 102.7847170984005 105.31892989301645 C 0.0 **** -0.24
2392 H 107.36882811855966 102.34626841022401 105.07129851758532 H 0.0 **** 0.06
2393 H 109.12960940315716 102.08546690050372 105.05573563132566 H 0.0 **** 0.06
2394 H 108.376410120457 102.99480036392305 106.3883567093074 H 0.0 **** 0.06
2395 H 108.46727931881 103.71179101242552 104.76106427639925 H 0.0 **** 0.06
2396 C 90.98007664266024 26.129999402767112 82.16446930700025 C 0.0 **** -0.24
2397 H 91.42302984183902 26.85288446134558 81.47817062733981 H 0.0 **** 0.06
2398 H 90.41876790804679 26.659077776874426 82.93480931311714 H 0.0 **** 0.06
2399 H 91.76956934026194 25.540283862314652 82.63015695038385 H 0.0 **** 0.06
2400 H 90.31013655900685 25.47042136704715 81.61407748710579 H 0.0 **** 0.06
2401 C 81.54564230273803 116.1205513227338 120.68359815712776 C 0.0 **** -0.24
2402 H 80.98319124096736 116.56085561466566 119.8596945737448 H 0.0 **** 0.06
2403 H 81.52149254489979 116.79438450153978 121.54021988459854 H 0.0 **** 0.06
2404 H 82.57871994255666 115.96206157704566 120.37399724248871 H 0.0 **** 0.06
2405 H 81.09828408974414 115.16564354319854 120.9591864029075 H 0.0 **** 0.06
2406 C 82.24225247311591 50.44241338063058 24.119719450086706 C 0.0 **** -0.24
2407 H 83.28628703916644 50.32899319401899 24.409822458871332 H 0.0 **** 0.06
2408 H 81.6014016811024 50.022338143746026 24.895148496368193 H 0.0 **** 0.06
2409 H 82.06804434427147 49.91690876253624 23.180168696954254 H 0.0 **** 0.06
2410 H 82.01394803528703 51.500205508669154 23.991715585545478 H 0.0 **** 0.06
2411 C 96.82003494598212 62.38117592965895 104.00283718949274 C 0.0 **** -0.24
2412 H 95.88928674679116 61.947692323223606 103.63699039296372 H 0.0 **** 0.06
2413 H 96.64202298732258 62.865560697213 104.96335804507322 H 0.0 **** 0.06
2414 H 97.18393257872177 63.116842208175456 103.28538838786989 H 0.0 **** 0.06
2415 H 97.56414728293839 61.59344566940146 104.12532008063266 H 0.0 **** 0.06
2416 C 32.84744872513113 49.55744180580956 37.98643407277465 C 0.0 **** -0.24
2417 H 31.806929566049234 49.612108605716 37.665704320751146 H 0.0 **** 0.06
2418 H 33.32992122735004 50.52100257965037 37.81991051130412 H 0.0 **** 0.06
2419 H 33.364508841802206 48.787857122090145 37.412946146493184 H 0.0 **** 0.06
2420 H 32.88754803236361 49.30890182136375 39.04672555285998 H 0.0 **** 0.06
2421 C 101.98589334966772 50.7436694676596 59.62746706541236 C 0.0 **** -0.24
2422 H 102.57981279392166 50.50023316173349 60.50899848475848 H 0.0 **** 0.06
2423 H 102.53732974724107 51.443859455459744 58.999764887807174 H 0.0 **** 0.06
2424 H 101.04498909141685 51.19830409342913 59.93841673224216 H 0.0 **** 0.06
2425 H 101.78090885368954 49.833054657021535 59.06471743875085 H 0.0 **** 0.06
2426 C 107.9448505112934 56.796590815516396 45.28085392602902 C 0.0 **** -0.24
2427 H 107.49891112791047 56.83304560584216 46.27430658726222 H 0.0 **** 0.06
2428 H 108.23201387518091 55.77004579414884 45.049796061983365 H 0.0 **** 0.06
2429 H 108.82808187459202 57.43461364527238 45.25482812034505 H 0.0 **** 0.06
2430 H 107.22177575965839 57.14600218278434 44.544285060759265 H 0.0 **** 0.06
2431 C 53.74123798082991 23.310514614101876 111.07191197677906 C 0.0 **** -0.24
2432 H 53.765020050120654 22.369951603766815 110.52288676313307 H 0.0 **** 0.06
2433 H 53.64527635544624 23.1075279439862 112.13827770976025 H 0.0 **** 0.06
2434 H 52.88981193148828 23.904951024235686 110.73684436833014 H 0.0 **** 0.06
2435 H 54.6631493700998 23.86179362365892 110.88710135345707 H 0.0 **** 0.06
2436 C 40.482475732789595 87.99161565016254 119.01394428279002 C 0.0 **** -0.24
2437 H 40.7858341545805 88.55490943394469 119.89557505954664 H 0.0 **** 0.06
2438 H 40.41016584255539 86.93343737892005 119.26590692842984 H 0.0 **** 0.06
2439 H 41.221480884069166 88.12707308756683 118.22329715446983 H 0.0 **** 0.06
2440 H 39.51213894681764 88.35078059891237 118.66963737604104 H 0.0 **** 0.06
2441 C 31.773925704801513 76.73725952152398 40.85377207263355 C 0.0 **** -0.24
2442 H 32.43904438039496 77.1446583512973 40.09239932108062 H 0.0 **** 0.06
2443 H 32.274384710710734 75.91787725284709 41.371471510614015 H 0.0 **** 0.06
2444 H 30.864873132729514 76.36670408557433 40.381136735540736 H 0.0 **** 0.06
2445 H 31.519490160740247 77.5178945378492 41.57017811207032 H 0.0 **** 0.06
2446 C 61.75220286469003 73.04355280544519 118.04573179558989 C 0.0 **** -0.24
2447 H 61.776159848593615 72.49900870114817 117.10166086312225 H 0.0 **** 0.06
2448 H 60.95901029691249 73.79080845977171 118.01345651712083 H 0.0 **** 0.06
2449 H 62.711225221960824 73.53754340893624 118.20476821720358 H 0.0 **** 0.06
2450 H 61.56286343211442 72.3465901274792 118.86172548289245 H 0.0 **** 0.06
2451 C 31.39395815594787 86.22404616121653 49.645525949876685 C 0.0 **** -0.24
2452 H 31.39075943390816 85.61781186704272 48.73958285739798 H 0.0 **** 0.06
2453 H 30.580609731649645 86.94906350756435 49.6006107122152 H 0.0 **** 0.06
2454 H 32.34583433546601 86.74986352424045 49.72758711375202 H 0.0 **** 0.06
2455 H 31.259488195109896 85.5798492603729 50.51400811369733 H 0.0 **** 0.06
2456 C 65.33564368048062 102.2214519872536 109.51023511146067 C 0.0 **** -0.24
2457 H 66.36180711198736 101.9650663905546 109.24875640895502 H 0.0 **** 0.06
2458 H 65.30129737782741 103.24402555052924 109.88534007944298 H 0.0 **** 0.06
2459 H 64.97611641925468 101.53901428574238 110.2803455309826 H 0.0 **** 0.06
2460 H 64.70409017766883 102.13605095940079 108.62518198147976 H 0.0 **** 0.06
2461 C 17.730890035107336 100.90116374594751 8.923260093707015 C 0.0 **** -0.24
2462 H 17.258464675910545 101.71453049458378 8.371702309379508 H 0.0 **** 0.06
2463 H 18.787769808586205 100.84914644286431 8.658997812139539 H 0.0 **** 0.06
2464 H 17.24491729666832 99.9589902532071 8.666324625310523 H 0.0 **** 0.06
2465 H 17.631167401448067 101.08151346912612 9.993325731830463 H 0.0 **** 0.06
2466 C 71.92932674273075 41.88200038730945 84.97913227857617 C 0.0 **** -0.24
2467 H 71.9635957592298 41.34025202992626 84.0335988237924 H 0.0 **** 0.06
2468 H 71.98533471794286 41.17381043715761 85.80582764564366 H 0.0 **** 0.06
2469 H 70.99753340368866 42.44301133550724 85.04291283446446 H 0.0 **** 0.06
2470 H 72.77295252748536 42.57039423379157 85.0323825796246 H 0.0 **** 0.06
2471 C 121.44656426941452 82.13085540011437 91.42853059365663 C 0.0 **** -0.24
2472 H 120.90990213460833 81.18519804769196 91.34740663978326 H 0.0 **** 0.06
2473 H 121.11901618392812 82.80286446864258 90.63505771206513 H 0.0 **** 0.06
2474 H 122.51695683848646 81.94961684821664 91.33470402540965 H 0.0 **** 0.06
2475 H 121.23812534559266 82.58424912805017 92.39777797753018 H 0.0 **** 0.06
2476 C 88.44477504575843 34.69836143004734 36.28144641313837 C 0.0 **** -0.24
2477 H 87.58529112604032 34.96285272210127 35.66572987196342 H 0.0 **** 0.06
2478 H 89.17773306949314 35.50424332703458 36.24716787003581 H 0.0 **** 0.06
2479 H 88.8939608414357 33.78077813299081 35.90210340655331 H 0.0 **** 0.06
2480 H 88.11999321781937 34.54487087291611 37.31070224108424 H 0.0 **** 0.06
2481 C 34.625675553776375 20.41309071298659 38.87064901825613 C 0.0 **** -0.24
2482 H 34.8531959258457 19.819345131818928 39.75580481100212 H 0.0 **** 0.06
2483 H 35.39965058064336 21.16906403360037 38.73151158602889 H 0.0 **** 0.06
2484 H 33.6595254242171 20.90144851856106 38.998209655048925 H 0.0 **** 0.06
2485 H 34.59131305158719 19.76240794637226 37.996912628828056 H 0.0 **** 0.06
2486 C 120.82706594489245 87.54111582696913 108.07639009623915 C 0.0 **** -0.24
2487 H 120.64955453880994 86.66233672007266 107.45556470090605 H 0.0 **** 0.06
2488 H 120.94865058234846 87.23236733499553 109.11521045509676 H 0.0 **** 0.06
2489 H 119.97871477199939 88.22091890055069 107.99465748019585 H 0.0 **** 0.06
2490 H 121.731738415763 88.04685940320687 107.73874191997166 H 0.0 **** 0.06
2491 C 108.67197638243078 90.64419997026124 22.897965113120065 C 0.0 **** -0.24
2492 H 108.26924723122693 89.87321429071136 22.240522733224424 H 0.0 **** 0.06
2493 H 109.64133916795276 90.32400744976309 23.280436928501757 H 0.0 **** 0.06
2494 H 107.98728826023671 90.80474376790963 23.73118479232994 H 0.0 **** 0.06
2495 H 108.7895338731854 91.57249090797109 22.339204626655885 H 0.0 **** 0.06
2496 C 27.168118467226748 85.93641121387662 0.05233915026252589 C 0.0 **** -0.24
2497 H 26.556422441929072 86.80729476171953 -0.18129495972507925 H 0.0 **** 0.06
2498 H 28.124012653871034 86.26333273853479 0.4630066729135933 H 0.0 **** 0.06
2499 H 27.339780142139034 85.35901209895448 -0.8559876907745831 H 0.0 **** 0.06
2500 H 26.65129211248815 85.31617740198615 0.7853751143003933 H 0.0 **** 0.06
2501 C 118.05326702418745 22.105280451591796 5.250089107251796 C 0.0 **** -0.24
2502 H 117.1761921625276 22.639189648518197 4.883461474877379 H 0.0 **** 0.06
2503 H 118.94605548828186 22.701984802819368 5.061081577239321 H 0.0 **** 0.06
2504 H 118.13897101542426 21.149431107405746 4.733359022295545 H 0.0 **** 0.06
2505 H 117.95211994900654 21.931595393061343 6.32051462698908 H 0.0 **** 0.06
2506 C 97.26298114769202 88.39602060149497 97.69734948178962 C 0.0 **** -0.24
2507 H 96.95462257422403 88.305231347306 98.7391419090998 H 0.0 **** 0.06
2508 H 96.73119425179434 87.65848466471454 97.09599801726407 H 0.0 **** 0.06
2509 H 98.33668752340643 88.22295989812727 97.62043540828807 H 0.0 **** 0.06
2510 H 97.02908827262948 89.3972311765238 97.33679909395559 H 0.0 **** 0.06
2511 C 25.910470647239777 100.59847826837157 60.31992759205361 C 0.0 **** -0.24
2512 H 25.057122443414983 100.04605966603253 59.926631702062345 H 0.0 **** 0.06
2513 H 25.733980877750582 100.84120294720833 61.36787808213928 H 0.0 **** 0.06
2514 H 26.040646281841987 101.51827451300056 59.75042582985069 H 0.0 **** 0.06
2515 H 26.80910205113338 99.98750475589864 60.234352486043754 H 0.0 **** 0.06
2516 C 37.674448727526254 42.88724670196393 55.30669622677747 C 0.0 **** -0.24
2517 H 37.4405551124936 43.55704121441926 56.133942981305815 H 0.0 **** 0.06
2518 H 38.74268190938059 42.93202793751546 55.09339909076353 H 0.0 **** 0.06
2519 H 37.113701049142406 43.19133194001515 54.42262023444355 H 0.0 **** 0.06
2520 H 37.40093312088098 41.8663922307077 55.5772504815228 H 0.0 **** 0.06
2521 C 1.8021547762447483 81.40448128527362 71.96022946773735 C 0.0 **** -0.24
2522 H 2.293966490481637 80.66350139608943 71.3301420439216 H 0.0 **** 0.06
2523 H 1.2045292415560027 80.89738101867036 72.71826061117642 H 0.0 **** 0.06
2524 H 1.1551579729382695 82.03149412022793 71.3463107429061 H 0.0 **** 0.06
2525 H 2.555458559522833 82.025063384676 72.44548238602951 H 0.0 **** 0.06
2526 C 62.334699840036784 57.143180809900365 56.37104072165408 C 0.0 **** -0.24
2527 H 61.374480774243075 56.640426318947924 56.48210530577106 H 0.0 **** 0.06
2528 H 62.38435311652403 57.618679596377994 55.39113479604933 H 0.0 **** 0.06
2529 H 63.139508373979105 56.41408859959068 56.46260970115321 H 0.0 **** 0.06
2530 H 62.43951769696756 57.89982816376526 57.148480183861324 H 0.0 **** 0.06
2531 C 45.797631898729065 5.017755267919796 5.847494788477206 C 0.0 **** -0.24
2532 H 46.43591036564425 5.7671064317679 6.314012178788033 H 0.0 **** 0.06
2533 H 45.63220402772447 5.280967752010525 4.802434993296572 H 0.0 **** 0.06
2534 H 44.840765866195 4.980284102690817 6.368810886136259 H 0.0 **** 0.06
2535 H 46.281647335352446 4.042662785210041 5.904721095688103 H 0.0 **** 0.06
2536 C 31.322013235346482 6.194115149689338 42.80183701617 C 0.0 **** -0.24
2537 H 31.999070688272894 5.716297673825135 42.09389720038331 H 0.0 **** 0.06
2538 H 31.564637383014244 7.254967816662798 42.87570420591446 H 0.0 **** 0.06
2539 H 31.43103232699739 5.726723626555081 43.78041461790758 H 0.0 **** 0.06
2540 H 30.29471933324104 6.079077654034624 42.45570299936577 H 0.0 **** 0.06
2541 C 34.10612713563819 18.65389779204409 119.59235682395462 C 0.0 **** -0.24
2542 H 33.168611502749684 19.178099119063404 119.78143250246 H 0.0 **** 0.06
2543 H 33.9088082997867 17.589348268943482 119.47018209368125 H 0.0 **** 0.06
2544 H 34.782143175761234 18.805408710922507 120.4343603451823 H 0.0 **** 0.06
2545 H 34.56384082236531 19.04601830127909 118.68342784474805 H 0.0 **** 0.06
2546 C 48.16093858782071 113.33542727952675 104.26008256129575 C 0.0 **** -0.24
2547 H 48.100827023157194 114.14232759896358 104.99044589899765 H 0.0 **** 0.06
2548 H 49.10424158262575 113.40686572372451 103.71787671217933 H 0.0 **** 0.06
2549 H 47.331236371968544 113.41848730449533 103.55798968852838 H 0.0 **** 0.06
2550 H 48.108421149112786 112.37574737071509 104.77369962624681 H 0.0 **** 0.06
2551 C 105.03229490645842 99.48507335209877 114.57691956772592 C 0.0 **** -0.24
2552 H 105.91542812650599 99.4643443200917 115.21603629585343 H 0.0 **** 0.06
2553 H 104.94227040682836 98.53362360977258 114.05115326944129 H 0.0 **** 0.06
2554 H 105.1288561146765 100.29353695527413 113.85169566560516 H 0.0 **** 0.06
2555 H 104.14493518709344 99.64850917275146 115.18802803647651 H 0.0 **** 0.06
2556 C 91.0166718691757 6.117768382821964 96.33118661355024 C 0.0 **** -0.24
2557 H 89.92919725383024 6.137689272672702 96.40522220779397 H 0.0 **** 0.06
2558 H 91.33202222291857 6.705152690123356 95.46787609471315 H 0.0 **** 0.06
2559 H 91.3540343811527 5.088725733884189 96.21325099332995 H 0.0 **** 0.06
2560 H 91.45005084466146 6.541215608796534 97.23661809872394 H 0.0 **** 0.06
2561 C 3.183263729574449 61.875338601789956 29.103942389432234 C 0.0 **** -0.24
2562 H 2.3019574671540965 61.441436501921324 28.631080470156917 H 0.0 **** 0.06
2563 H 3.149230256872386 61.6851510540832 30.177339625763807 H 0.0 **** 0.06
2564 H 3.1996039366413527 62.949273095840375 28.92478409204466 H 0.0 **** 0.06
2565 H 4.081158600064896 61.42270452350916 28.682585828499782 H 0.0 **** 0.06
2566 C 73.60235064637726 56.76059792178205 115.78672135146499 C 0.0 **** -0.24
2567 H 74.03875234283049 56.13884187560666 115.00495277168997 H 0.0 **** 0.06
2568 H 74.06275696785582 56.516750767909 116.74468208692409 H 0.0 **** 0.06
2569 H 72.5290376095175 56.57553427901314 115.84064500916335 H 0.0 **** 0.06
2570 H 73.77801298491573 57.811821524295794 115.55561557862549 H 0.0 **** 0.06
2571 C 36.041937697011676 96.85118322556667 59.84489632699452 C 0.0 **** -0.24
2572 H 36.126037622980135 97.75777805136767 59.24612080901195 H 0.0 **** 0.06
2573 H 36.79289149463413 96.86653695985069 60.63491328660405 H 0.0 **** 0.06
2574 H 36.20022454526376 95.97978163235803 59.209632871454225 H 0.0 **** 0.06
2575 H 35.047947382867065 96.80121319834672 60.28941334720803 H 0.0 **** 0.06
2576 C 42.98579569416955 34.32248647246216 6.843187697833571 C 0.0 **** -0.24
2577 H 43.49453429680733 33.365958275846914 6.722975475100611 H 0.0 **** 0.06
2578 H 43.006829169264705 34.616198170980425 7.892865355078442 H 0.0 **** 0.06
2579 H 41.95150597827487 34.22666029283721 6.512616582507121 H 0.0 **** 0.06
2580 H 43.49002849981568 35.07947584485652 6.242508501647478 H 0.0 **** 0.06
2581 C 62.51029278833988 44.36651594864688 50.11805986076812 C 0.0 **** -0.24
2582 H 61.42860692009316 44.34088735256043 49.98614706153476 H 0.0 **** 0.06
2583 H 62.9974477847793 44.21821865986104 49.152710066238996 H 0.0 **** 0.06
2584 H 62.812121665990446 43.574799143627814 50.80353264720673 H 0.0 **** 0.06
2585 H 62.802919153228856 45.33311190120395 50.52782831982488 H 0.0 **** 0.06
2586 C 18.226075876449443 1.3763154343960764 100.87180851369413 C 0.0 **** -0.24
2587 H 18.652743262540696 0.8068064974290223 101.69577239980111 H 0.0 **** 0.06
2588 H 17.452824396901804 0.783487931773891 100.381190597136 H 0.0 **** 0.06
2589 H 19.009372911472724 1.6173557863532437 100.15276646714503 H 0.0 **** 0.06
2590 H 17.788475771556534 2.2982657556116237 101.254714354035 H 0.0 **** 0.06
2591 C 88.54927041965442 16.56366095181943 68.88394627073785 C 0.0 **** -0.24
2592 H 88.07125353378541 15.831883469889362 68.23233462998417 H 0.0 **** 0.06
2593 H 87.82265867280654 17.32403398817314 69.17072730084496 H 0.0 **** 0.06
2594 H 89.37878103129742 17.033358145083298 68.35484906676456 H 0.0 **** 0.06
2595 H 88.92469370323357 16.064500949913963 69.77748071455761 H 0.0 **** 0.06
2596 C 86.6948669796819 53.48230821481371 43.08579115773918 C 0.0 **** -0.24
2597 H 86.95354301246292 52.423304763259466 43.10670932658865 H 0.0 **** 0.06
2598 H 86.62028613919898 53.81641706009839 42.05074471933126 H 0.0 **** 0.06
2599 H 87.46822895751117 54.0547704821376 43.59803947476643 H 0.0 **** 0.06
2600 H 85.7389850393798 53.63280614368574 43.586338010887395 H 0.0 **** 0.06
2601 C 13.263918643309978 14.33886935770181 116.41093280967081 C 0.0 **** -0.24
2602 H 14.092751209277992 13.772835142196698 116.83613391087647 H 0.0 **** 0.06
2603 H 12.959178255048755 13.883359461273585 115.46773332721115 H 0.0 **** 0.06
2604 H 13.579441567592312 15.366441688551049 116.23241817416226 H 0.0 **** 0.06
2605 H 12.424020194440345 14.330782853800088 117.10528164565837 H 0.0 **** 0.06
2606 C 54.968108535101294 27.772861265235917 27.02154210404666 C 0.0 **** -0.24
2607 H 55.57417110542707 26.937857437465482 26.668785890161786 H 0.0 **** 0.06
2608 H 55.11431873776252 27.899044542470165 28.095073928974585 H 0.0 **** 0.06
2609 H 53.916972548159606 27.569583299523458 26.819801507600033 H 0.0 **** 0.06
2610 H 55.267995473766234 28.683773767212642 26.50486204235105 H 0.0 **** 0.06
2611 C 2.6283423874483987 101.61327437713152 47.09583366649042 C 0.0 **** -0.24
2612 H 3.154405849171866 102.50348044229372 47.44001748504962 H 0.0 **** 0.06
2613 H 3.0727527543896684 101.26738817283041 46.161681440231575 H 0.0 **** 0.06
2614 H 1.5778515334110494 101.85289560287166 46.93198390045262 H 0.0 **** 0.06
2615 H 2.7093218418625327 100.82937497906272 47.84938342251451 H 0.0 **** 0.06
2616 C 94.11078090805543 71.14032279503823 80.34603891095836 C 0.0 **** -0.24
2617 H 95.10665610897883 70.96468216735275 79.93966092907519 H 0.0 **** 0.06
2618 H 94.06855742396002 70.77579889412627 81.3727724077086 H 0.0 **** 0.06
2619 H 93.3740754956385 70.61186173282232 79.74174087279204 H 0.0 **** 0.06
2620 H 93.89591497669275 72.20813513136665 80.33008604513341 H 0.0 **** 0.06
2621 C 119.79789545256375 90.10196400158225 100.367156083169 C 0.0 **** -0.24
2622 H 119.63845873604663 89.93437283989965 99.3015509423168 H 0.0 **** 0.06
2623 H 120.65272217363503 90.76282204944548 100.50640398097607 H 0.0 **** 0.06
2624 H 119.99146453513936 89.14865001226227 100.85959553578442 H 0.0 **** 0.06
2625 H 118.90871303197804 90.56026452503156 100.79969551955662 H 0.0 **** 0.06
2626 C 121.03893445191277 29.50006874625649 107.1974098822875 C 0.0 **** -0.24
2627 H 122.05037372963908 29.699328613041217 106.84422694684991 H 0.0 **** 0.06
2628 H 120.97744369320921 28.476325219414093 107.5668895442218 H 0.0 **** 0.06
2629 H 120.33456748303189 29.63304724797095 106.37576454170562 H 0.0 **** 0.06
2630 H 120.79248575467514 30.19206788765169 108.00269452512129 H 0.0 **** 0.06
2631 C 59.755944626143695 68.23061993514003 17.992934779713323 C 0.0 **** -0.24
2632 H 59.09451850167272 67.62100136409578 17.377041259820317 H 0.0 **** 0.06
2633 H 59.33409117969537 69.229910329707 18.100016528475322 H 0.0 **** 0.06
2634 H 60.734951317774964 68.29766574181326 17.516794072233296 H 0.0 **** 0.06
2635 H 59.86071258415462 67.77239891226608 18.97666458495661 H 0.0 **** 0.06
2636 C 17.65954446333501 30.65198485950637 69.12697088531473 C 0.0 **** -0.24
2637 H 16.692199286844698 30.24549909722427 68.83120614124277 H 0.0 **** 0.06
2638 H 18.317954233542707 29.838031107794876 69.4307059730564 H 0.0 **** 0.06
2639 H 17.523947895579965 31.34129374805022 69.96069924984036 H 0.0 **** 0.06
2640 H 18.10271772800718 31.183828650490398 68.28446876516531 H 0.0 **** 0.06
2641 C 4.026490060171378 26.28163188938982 20.571149955211325 C 0.0 **** -0.24
2642 H 4.846596417095366 26.924621323580915 20.254350044133332 H 0.0 **** 0.06
2643 H 3.506405030898044 26.742789894973967 21.41107674655464 H 0.0 **** 0.06
2644 H 4.422905476314286 25.312489000831818 20.87624516072802 H 0.0 **** 0.06
2645 H 3.3311423244069776 26.14472253633288 19.742496511368216 H 0.0 **** 0.06
2646 C 11.557107611139045 12.304676542989498 104.1893087595194 C 0.0 **** -0.24
2647 H 10.612039841337293 11.82091889458826 103.94197782567377 H 0.0 **** 0.06
2648 H 12.337231608380478 11.941194262215205 103.52038850028555 H 0.0 **** 0.06
2649 H 11.82406452234244 12.072359883094592 105.22028601869059 H 0.0 **** 0.06
2650 H 11.453104680399534 13.383764386402135 104.07548894021232 H 0.0 **** 0.06
2651 C 109.85511460875625 49.81910028349111 108.45354824736557 C 0.0 **** -0.24
2652 H 110.17360112797218 50.06716561820343 107.4417127951474 H 0.0 **** 0.06
2653 H 109.02446356248203 50.46400666485178 108.74150790928809 H 0.0 **** 0.06
2654 H 110.68613327709889 49.96834516727637 109.14267091233535 H 0.0 **** 0.06
2655 H 109.53590210376805 48.77759741358156 108.48946853863583 H 0.0 **** 0.06
2656 C 10.419918771892867 42.8683931232935 116.04919063975821 C 0.0 **** -0.24
2657 H 10.18723958373414 42.61351530637632 115.0150006893601 H 0.0 **** 0.06
2658 H 9.541060491349299 43.309406119588175 116.52018302102559 H 0.0 **** 0.06
2659 H 11.241139915750864 43.58397505374875 116.07029505338069 H 0.0 **** 0.06
2660 H 10.7083129146298 41.966688671688125 116.58898041586274 H 0.0 **** 0.06
2661 C 18.346129312770557 115.43687835619201 2.1381028055742206 C 0.0 **** -0.24
2662 H 18.079428264507328 115.89223503122275 1.184216023045252 H 0.0 **** 0.06
2663 H 18.788186172194088 114.45636505823842 1.9612114966343768 H 0.0 **** 0.06
2664 H 17.451926406373673 115.32781396589567 2.75167532976306 H 0.0 **** 0.06
2665 H 19.06560906695131 116.07232634410065 2.6550011480225066 H 0.0 **** 0.06
2666 C 117.62109883738873 55.404258837589026 91.2360022486144 C 0.0 **** -0.24
2667 H 117.01409966153133 54.50106914603751 91.17012710146537 H 0.0 **** 0.06
2668 H 117.06036639704753 56.24843935495386 90.8324509947808 H 0.0 **** 0.06
2669 H 118.53716571711345 55.268063061668414 90.66147261886994 H 0.0 **** 0.06
2670 H 117.87145792131948 55.599202991151316 92.2788503878364 H 0.0 **** 0.06
2671 C 23.320185633225577 94.33949023484257 41.153742954058856 C 0.0 **** -0.24
2672 H 23.148449134091777 93.35157518958482 40.7252740282664 H 0.0 **** 0.06
2673 H 24.342570627478068 94.65337526966994 40.94339268854051 H 0.0 **** 0.06
2674 H 23.16682619350516 94.29891734807757 42.23184212233821 H 0.0 **** 0.06
2675 H 22.62238174227204 95.05224926006389 40.71330739982889 H 0.0 **** 0.06
2676 C 46.47788038345607 101.95482472582123 36.18465055191949 C 0.0 **** -0.24
2677 H 45.685893792183435 102.43351101687955 36.76025178604293 H 0.0 **** 0.06
2678 H 47.160197928239256 101.44204896621719 36.86351650871235 H 0.0 **** 0.06
2679 H 47.02469862187161 102.71037206502382 35.621254496251545 H 0.0 **** 0.06
2680 H 46.0405972512616 101.23222927638878 35.49440892607936 H 0.0 **** 0.06
2681 C 81.12779786986101 74.01844551458015 32.78600544293751 C 0.0 **** -0.24
2682 H 81.41417061071155 72.97814466517721 32.937965575852715 H 0.0 **** 0.06
2683 H 80.57185559411806 74.10923885674467 31.852182144271822 H 0.0 **** 0.06
2684 H 82.02298300454692 74.63862846483443 32.73846788090181 H 0.0 **** 0.06
2685 H 80.50192733635168 74.34716721504299 33.61616223188396 H 0.0 **** 0.06
2686 C 48.405412473367676 64.24012151345306 19.055922187075765 C 0.0 **** -0.24
2687 H 48.64747488527058 64.84722404705698 18.18389041931374 H 0.0 **** 0.06
2688 H 48.812100625157655 63.23717935488864 18.92423341663067 H 0.0 **** 0.06
2689 H 47.32310155607519 64.18158766514921 19.169288726443114 H 0.0 **** 0.06
2690 H 48.83986946195154 64.69387295538715 19.94717576028941 H 0.0 **** 0.06
2691 C 14.792677440649314 25.625665507134585 46.815927743845066 C 0.0 **** -0.24
2692 H 15.319376129085825 25.645691399381434 45.86238774686434 H 0.0 **** 0.06
2693 H 15.506858583999417 25.76730098268216 47.628116704787175 H 0.0 **** 0.06
2694 H 14.292598452194298 24.66496794802117 46.935682881614085 H 0.0 **** 0.06
2695 H 14.052858192540057 26.426327132336695 46.83907114639126 H 0.0 **** 0.06
2696 C 91.73644952623684 120.06430916309074 50.745761666053625 C 0.0 **** -0.24
2697 H 90.91171221458751 120.77102520215021 50.84035533925305 H 0.0 **** 0.06
2698 H 91.91243574742856 119.5805711859042 51.70702832981368 H 0.0 **** 0.06
2699 H 92.63627247471914 120.59620191492192 50.4361152360197 H 0.0 **** 0.06
2700 H 91.48491357030031 119.31092112835108 50.00031336128171 H 0.0 **** 0.06
2701 C 5.5268035272854625 38.0781629020579 44.79857110485855 C 0.0 **** -0.24
2702 H 6.341273667022108 38.780274277612975 44.61883194335704 H 0.0 **** 0.06
2703 H 4.626207644553659 38.62855963623244 45.0713908969112 H 0.0 **** 0.06
2704 H 5.8005552977392725 37.404043795693894 45.60971319144434 H 0.0 **** 0.06
2705 H 5.339276924358696 37.500706544805865 43.89328989950016 H 0.0 **** 0.06
2706 C 68.69968362035812 92.98604508627969 96.58293476017082 C 0.0 **** -0.24
2707 H 68.0315836545777 92.12734359540374 96.51911236966407 H 0.0 **** 0.06
2708 H 69.71223360090428 92.67899023771128 96.31730513620391 H 0.0 **** 0.06
2709 H 68.69372243703822 93.37591934623634 97.600619698429 H 0.0 **** 0.06
2710 H 68.36218136800429 93.76182004911985 95.8948253004755 H 0.0 **** 0.06
2711 C 38.344293971937304 92.20847049868502 51.57579282263643 C 0.0 **** -0.24
2712 H 39.33193442795448 91.84210576839916 51.85651397098178 H 0.0 **** 0.06
2713 H 38.4510089438607 93.0814205047393 50.93052278189094 H 0.0 **** 0.06
2714 H 37.79133575686302 92.48428672107252 52.47307911440042 H 0.0 **** 0.06
2715 H 37.80553239640466 91.42493686655064 51.0421766801563 H 0.0 **** 0.06
2716 C 67.10679172166118 27.033686746729146 81.70308126534627 C 0.0 **** -0.24
2717 H 67.95516893586503 26.38412183374274 81.91896240258387 H 0.0 **** 0.06
2718 H 67.12696720500676 27.89324956433927 82.37325725539955 H 0.0 **** 0.06
2719 H 66.17902282489791 26.48051504433292 81.84975464450741 H 0.0 **** 0.06
2720 H 67.16502536472453 27.376011518651467 80.66979053586522 H 0.0 **** 0.06
2721 C 66.24120796430779 12.058016851586856 51.429776121068244 C 0.0 **** -0.24
2722 H 65.47337581056757 12.79351629447602 51.67019137580263 H 0.0 **** 0.06
2723 H 67.19326446449998 12.372514957096087 51.859821015516786 H 0.0 **** 0.06
2724 H 66.34014270968788 11.976389695500359 50.3472822132083 H 0.0 **** 0.06
2725 H 65.9580509932562 11.08991256888558 51.8431988694868 H 0.0 **** 0.06
2726 C 65.98127330856005 70.95633450862022 40.70519694569165 C 0.0 **** -0.24
2727 H 65.75194998599105 69.89144906863035 40.66384537454975 H 0.0 **** 0.06
2728 H 66.98986040278061 71.09626313993573 41.09445803356198 H 0.0 **** 0.06
2729 H 65.26670879257634 71.4569415797107 41.358622722684785 H 0.0 **** 0.06
2730 H 65.91551030418765 71.38012331226884 39.703117405277716 H 0.0 **** 0.06
2731 C 48.84901513080611 120.80534656555555 102.62403179716392 C 0.0 **** -0.24
2732 H 48.560195710540995 119.76814534275164 102.7890439241065 H 0.0 **** 0.06
2733 H 48.63295716873064 121.0820996102968 101.59222812074856 H 0.0 **** 0.06
2734 H 49.916753457662836 120.91949415036014 102.81499096689157 H 0.0 **** 0.06
2735 H 48.288118948916235 121.45038240494135 103.2991290310463 H 0.0 **** 0.06
2736 C 39.91222433906762 74.60235564769297 84.58989885806284 C 0.0 **** -0.24
2737 H 40.27123373003579 73.69788916187412 84.09789803185984 H 0.0 **** 0.06
2738 H 39.75435797976573 75.38231535671451 83.84375389952265 H 0.0 **** 0.06
2739 H 40.65170048682606 74.9387434416148 85.31695142500536 H 0.0 **** 0.06
2740 H 38.97187835228402 74.39070573345461 85.09878476176058 H 0.0 **** 0.06
2741 C 16.32130813760697 12.585509343873326 69.6189877457955 C 0.0 **** -0.24
2742 H 15.481713494738681 13.114612352939837 69.16650011643026 H 0.0 **** 0.06
2743 H 16.45914340785098 12.933148413304831 70.64269553104901 H 0.0 **** 0.06
2744 H 17.225817547318858 12.78131794632635 69.04332045022193 H 0.0 **** 0.06
2745 H 16.11686716466508 11.51539485963714 69.62298081228556 H 0.0 **** 0.06
2746 C 106.17512862340348 40.393081334918094 105.51601651814048 C 0.0 **** -0.24
2747 H 105.68906144442562 39.4217015356615 105.60646046573129 H 0.0 **** 0.06
2748 H 107.07273541860476 40.293683097591156 104.90459666759097 H 0.0 **** 0.06
2749 H 106.44809580995525 40.756436194286465 106.50578880697714 H 0.0 **** 0.06
2750 H 105.49033246643819 41.09829062164155 105.04548363914591 H 0.0 **** 0.06
2751 C 95.2847491525373 26.617660158278795 16.92026809355795 C 0.0 **** -0.24
2752 H 94.57597569499717 27.43031648346738 17.08282907601125 H 0.0 **** 0.06
2753 H 95.52965584222682 26.152820135643026 17.875703408423362 H 0.0 **** 0.06
2754 H 96.1935684250916 27.01439113811574 16.46587257820758 H 0.0 **** 0.06
2755 H 94.84041080182726 25.8760095096157 16.257149835049546 H 0.0 **** 0.06
2756 C 22.140572822814022 76.53805369971207 20.59265980001564 C 0.0 **** -0.24
2757 H 21.81489542099699 77.05732135321864 21.4935695739793 H 0.0 **** 0.06
2758 H 21.977292391337635 77.17917463704293 19.72621557715516 H 0.0 **** 0.06
2759 H 21.568328574070684 75.61785209865945 20.476661354461015 H 0.0 **** 0.06
2760 H 23.20077768446413 76.29985586502892 20.67397112778505 H 0.0 **** 0.06
2761 C 30.861041146455506 62.593712167718216 10.584732449478778 C 0.0 **** -0.24
2762 H 31.245112777546552 61.6874122488337 10.116324956877424 H 0.0 **** 0.06
2763 H 31.69496747820071 63.23651449013382 10.86917445831212 H 0.0 **** 0.06
2764 H 30.287817310974333 62.328799288325975 11.472825741266256 H 0.0 **** 0.06
2765 H 30.21865523472931 63.122101926744826 9.881149004295676 H 0.0 **** 0.06
2766 C 17.365263668496016 36.28099656402992 105.7030274952717 C 0.0 **** -0.24
2767 H 16.293425874234853 36.17359319592396 105.54039503506601 H 0.0 **** 0.06
2768 H 17.686144971540152 35.582374106023394 106.47619825274191 H 0.0 **** 0.06
2769 H 17.58491253788778 37.30020181994905 106.02033827009816 H 0.0 **** 0.06
2770 H 17.896081605521534 36.06586733769487 104.7761575966116 H 0.0 **** 0.06
2771 C 27.59840207291171 115.88598069480793 37.7143724855575 C 0.0 **** -0.24
2772 H 28.450102330905736 115.22591803621098 37.55098623173324 H 0.0 **** 0.06
2773 H 26.69593864728256 115.41779361351553 37.31907278715918 H 0.0 **** 0.06
2774 H 27.76909866882079 116.83375405619513 37.20454760004314 H 0.0 **** 0.06
2775 H 27.476242473844025 116.06422607940377 38.782623734366325 H 0.0 **** 0.06
2776 C 47.530654624161514 42.18113279438529 16.367637533854737 C 0.0 **** -0.24
2777 H 47.793699055268576 41.76713101059465 15.39404557624356 H 0.0 **** 0.06
2778 H 46.96124122020467 41.44330378027547 16.933349369603334 H 0.0 **** 0.06
2779 H 46.92748889459165 43.07807206504347 16.229300481648785 H 0.0 **** 0.06
2780 H 48.43934006663926 42.43436708502969 16.912263275114707 H 0.0 **** 0.06
2781 C 100.51898181519977 68.15170202484074 95.96800460484047 C 0.0 **** -0.24
2782 H 100.2320515071489 67.10867257536509 95.82886518454734 H 0.0 **** 0.06
2783 H 100.33320850547386 68.4451782533315 97.00150552242945 H 0.0 **** 0.06
2784 H 99.93170231021872 68.78110630189215 95.29951738869974 H 0.0 **** 0.06
2785 H 101.5781228786775 68.2698216093494 95.74034900906034 H 0.0 **** 0.06
2786 C 64.83607135877747 52.64498675374823 57.70605857577027 C 0.0 **** -0.24
2787 H 64.76083026038458 52.52972883240332 56.62549879876863 H 0.0 **** 0.06
2788 H 63.838079064232254 52.61193931799161 58.145265225109 H 0.0 **** 0.06
2789 H 65.30387301143486 53.601488504158425 57.93808899368119 H 0.0 **** 0.06
2790 H 65.44085538758199 51.83563087584936 58.116493145367855 H 0.0 **** 0.06
2791 C 91.50141808315252 119.33828752775428 39.47684859134472 C 0.0 **** -0.24
2792 H 90.48847729091372 119.00609322860541 39.247031076228154 H 0.0 **** 0.06
2793 H 92.20396664498134 118.8539561269307 38.79786641124849 H 0.0 **** 0.06
2794 H 91.74687326309981 119.07323950251102 40.505325347045556 H 0.0 **** 0.06
2795 H 91.5655500703175 120.42011222960888 39.35510050161358 H 0.0 **** 0.06
2796 C 76.93097296310788 100.90103318212394 57.91276784424165 C 0.0 **** -0.24
2797 H 77.1441665201242 101.94645015732968 58.13515032467361 H 0.0 **** 0.06
2798 H 77.39856940361426 100.62771830932985 56.96628766072089 H 0.0 **** 0.06
2799 H 75.85241852120913 100.75867078613018 57.83977170600182 H 0.0 **** 0.06
2800 H 77.32698333647335 100.27163912217708 58.70896503287428 H 0.0 **** 0.06
2801 C 99.51012589609564 115.26210749259603 25.88178529755635 C 0.0 **** -0.24
2802 H 100.50101830218199 115.34617346971392 26.328626777262798 H 0.0 **** 0.06
2803 H 99.26511128118139 114.20940051320743 25.73871882360362 H 0.0 **** 0.06
2804 H 99.50178979909415 115.77160512516598 24.91791039127955 H 0.0 **** 0.06
2805 H 98.77414090561484 115.7205034828434 26.542020344529206 H 0.0 **** 0.06
2806 C 82.6798589029811 98.36066162917078 23.06680446785404 C 0.0 **** -0.24
2807 H 82.06154768885875 98.07494298539754 23.917592461712573 H 0.0 **** 0.06
2808 H 83.4676188053466 97.62085514313068 22.92452365498582 H 0.0 **** 0.06
2809 H 83.12702843224517 99.33647366972068 23.254470029362068 H 0.0 **** 0.06
2810 H 82.06206336868811 98.41064665077079 22.169896817663414 H 0.0 **** 0.06
2811 C 118.44047086774383 120.30167255914594 108.42412267012719 C 0.0 **** -0.24
2812 H 117.80130781444569 120.63959528632861 109.24040081057129 H 0.0 **** 0.06
2813 H 118.05701995079158 120.68953002926719 107.47877391118448 H 0.0 **** 0.06
2814 H 118.44609079203603 119.21226893395053 108.39480946339197 H 0.0 **** 0.06
2815 H 119.45485375727888 120.66707972437203 108.58248004009454 H 0.0 **** 0.06
2816 C 39.14372483010695 34.38842775804105 39.4309566396208 C 0.0 **** -0.24
2817 H 38.41552335850534 34.16695186971839 38.650803981970626 H 0.0 **** 0.06
2818 H 39.07944363759026 35.44333746563356 39.69951132884262 H 0.0 **** 0.06
2819 H 40.14710867083534 34.16726361675882 39.06377200717384 H 0.0 **** 0.06
2820 H 38.93515160436982 33.77556171467245 40.307943274452754 H 0.0 **** 0.06
2821 C 11.254808661875359 11.338205793951147 23.46062430203004 C 0.0 **** -0.24
2822 H 10.416624992414427 11.843973793702133 22.97931140768464 H 0.0 **** 0.06
2823 H 12.032804855780938 11.143125474026562 22.723220298568847 H 0.0 **** 0.06
2824 H 10.913474543202284 10.395848820469439 23.88811282582582 H 0.0 **** 0.06
2825 H 11.653925084626593 11.972620098716362 24.25267780842352 H 0.0 **** 0.06
2826 C 37.65810900041626 66.09222522408214 34.359966908180866 C 0.0 **** -0.24
2827 H 37.677535528769 65.0150876117043 34.197202516958555 H 0.0 **** 0.06
2828 H 36.62352510818321 66.43255479191438 34.41656333955939 H 0.0 **** 0.06
2829 H 38.16078942442947 66.5943118083276 33.53352116584301 H 0.0 **** 0.06
2830 H 38.17039048961882 66.32853880233714 35.29323415947471 H 0.0 **** 0.06
2831 C 36.06100611331291 118.3563935673605 96.21842938642266 C 0.0 **** -0.24
2832 H 36.71575554115139 117.93284030036716 96.98048383716076 H 0.0 **** 0.06
2833 H 36.65076254599679 118.95567630132172 95.5245621795323 H 0.0 **** 0.06
2834 H 35.30864690698064 118.98529750312139 96.69416837120968 H 0.0 **** 0.06
2835 H 35.569328894932816 117.54881603365044 95.67416815965544 H 0.0 **** 0.06
2836 C 51.266632838030546 20.493666055669394 21.725938987846718 C 0.0 **** -0.24
2837 H 50.72024065156549 19.839574400445372 21.046270078059734 H 0.0 **** 0.06
2838 H 52.05690765889341 21.007575879268586 21.177610075042423 H 0.0 **** 0.06
2839 H 51.706057268059766 19.900518120880065 22.527001247789627 H 0.0 **** 0.06
2840 H 50.5822670306612 21.22885960317791 22.15077553063395 H 0.0 **** 0.06
2841 C 31.68967286702872 89.05774981023887 41.45930871962449 C 0.0 **** -0.24
2842 H 31.838288269105988 89.56279950542097 40.5047106814894 H 0.0 **** 0.06
2843 H 30.91382178857151 88.30028770220628 41.3533024798306 H 0.0 **** 0.06
2844 H 31.38741155057602 89.78657613858587 42.21191117547161 H 0.0 **** 0.06
2845 H 32.62232000887798 88.58335392732567 41.76724064936093 H 0.0 **** 0.06
2846 C 26.96181205573538 36.07247603054244 116.72835108880433 C 0.0 **** -0.24
2847 H 27.577637497232274 36.11704728899144 117.62688744592671 H 0.0 **** 0.06
2848 H 26.151625829682246 35.35803613613227 116.8802857659866 H 0.0 **** 0.06
2849 H 27.572654798207452 35.755697313955075 115.88392854639919 H 0.0 **** 0.06
2850 H 26.54371201491051 37.05802833169578 116.5254937486427 H 0.0 **** 0.06
2851 C 97.07672393652643 59.56704004003609 46.25967901059897 C 0.0 **** -0.24
2852 H 96.93095291297453 60.21788248139086 45.3969170992856 H 0.0 **** 0.06
2853 H 96.90928081663543 58.53080855792632 45.96508900111513 H 0.0 **** 0.06
2854 H 96.37212575352476 59.84163884876284 47.044204333079676 H 0.0 **** 0.06
2855 H 98.09579620969703 59.679940904155046 46.63027886718977 H 0.0 **** 0.06
2856 C 68.0732809503877 15.832379842111834 67.76928060837488 C 0.0 **** -0.24
2857 H 69.10912316980153 15.612412437911473 68.02555449908257 H 0.0 **** 0.06
2858 H 67.72754894084656 15.124476555657736 67.01566169183019 H 0.0 **** 0.06
2859 H 68.00390621219921 16.846487632438027 67.37466723880993 H 0.0 **** 0.06
2860 H 67.45286063763317 15.747040338867691 68.66093070008861 H 0.0 **** 0.06
2861 C 88.39897721595983 83.4563888651013 117.12719371631582 C 0.0 **** -0.24
2862 H 89.04576575647056 82.89516317221305 116.45188600565533 H 0.0 **** 0.06
2863 H 87.39477104270125 83.03165462617548 117.10346633165699 H 0.0 **** 0.06
2864 H 88.36070441246699 84.49873052189602 116.81037325605539 H 0.0 **** 0.06
2865 H 88.79489059841887 83.39892402049674 118.14086352697933 H 0.0 **** 0.06
2866 C 95.91814707268472 90.20721452262427 112.4348445663797 C 0.0 **** -0.24
2867 H 96.22585201824992 90.84612728415843 113.2620417771883 H 0.0 **** 0.06
2868 H 96.79594514285736 89.8990049069453 111.86622821823589 H 0.0 **** 0.06
2869 H 95.23847335489498 90.75773061633274 111.78426958493613 H 0.0 **** 0.06
2870 H 95.41081751058127 89.32513024669012 112.82687164771835 H 0.0 **** 0.06
2871 C 24.942628314375042 19.043832590303907 17.90504534900782 C 0.0 **** -0.24
2872 H 24.90801697866516 19.881158270309015 17.20890612121849 H 0.0 **** 0.06
2873 H 23.93650442610192 18.83336180135484 18.270341125788093 H 0.0 **** 0.06
2874 H 25.588468291982963 19.297424189425158 18.746261258699974 H 0.0 **** 0.06
2875 H 25.33616771326274 18.163950030989838 17.397289024980296 H 0.0 **** 0.06
2876 C 107.50803987926233 9.979221665463388 36.761265826118986 C 0.0 **** -0.24
2877 H 106.52525424222767 10.105192490506656 37.215566247933154 H 0.0 **** 0.06
2878 H 107.51010826477577 9.08059375335067 36.144697335445684 H 0.0 **** 0.06
2879 H 108.26012501073689 9.885385495167576 37.543763609790375 H 0.0 **** 0.06
2880 H 107.73455461173452 10.846920443925356 36.140783677709095 H 0.0 **** 0.06
2881 C 35.61896417519452 111.83327055023932 69.57446046567776 C 0.0 **** -0.24
2882 H 36.55085513334933 111.89664093889877 69.01305460728696 H 0.0 **** 0.06
2883 H 35.49480127178387 110.82080316388547 69.96027462308842 H 0.0 **** 0.06
2884 H 34.78311326470421 112.07783010527025 68.91826837412685 H 0.0 **** 0.06
2885 H 35.64708703094041 112.5378079929028 70.40624425820914 H 0.0 **** 0.06
2886 C 25.358622175405657 109.66114467007125 49.95868224613571 C 0.0 **** -0.24
2887 H 24.484606028590918 109.94960115816369 50.54249107605699 H 0.0 **** 0.06
2888 H 25.477377018831902 108.5787484654847 49.99300138863509 H 0.0 **** 0.06
2889 H 26.246467625440772 110.1375156793273 50.37524830599875 H 0.0 **** 0.06
2890 H 25.226497406937042 109.98065614785801 48.92411002081042 H 0.0 **** 0.06
2891 C 52.13543021881061 31.8174954949245 78.81053634975967 C 0.0 **** -0.24
2892 H 51.218200009487425 32.38703502723723 78.65798261809533 H 0.0 **** 0.06
2893 H 52.65346938906383 31.703812078344498 77.85831178411473 H 0.0 **** 0.06
2894 H 51.888705467372574 30.833891459447955 79.21052652574534 H 0.0 **** 0.06
2895 H 52.778182699329655 32.34604699471299 79.5147342666155 H 0.0 **** 0.06
2896 C 67.98597251392005 74.86418524054255 27.536506416950544 C 0.0 **** -0.24
2897 H 68.76781065138334 74.11989922919594 27.386324621475353 H 0.0 **** 0.06
2898 H 67.14848266082458 74.65034228354892 26.871118437941618 H 0.0 **** 0.06
2899 H 68.38109068801114 75.855590932123 27.316853361110816 H 0.0 **** 0.06
2900 H 67.6461705935344 74.82927848129486 28.57124902347357 H 0.0 **** 0.06
2901 C 35.513589566170054 26.383776431929846 109.07599062132695 C 0.0 **** -0.24
2902 H 34.75707688605547 26.081979268620216 109.80008878068358 H 0.0 **** 0.06
2903 H 36.18826727935698 27.10737407415786 109.5346589366543 H 0.0 **** 0.06
2904 H 35.028843497406825 26.835327978153828 108.2101375127827 H 0.0 **** 0.06
2905 H 36.08194282050462 25.508891502618383 108.75836326648778 H 0.0 **** 0.06
2906 C 104.19144736129556 71.40531779597336 106.81894807478437 C 0.0 **** -0.24
2907 H 104.96480972011648 70.927717880974 107.42103207666315 H 0.0 **** 0.06
2908 H 104.03484159986027 72.4248764907789 107.17115657977547 H 0.0 **** 0.06
2909 H 103.26283960199896 70.84201448539511 106.90778560117602 H 0.0 **** 0.06
2910 H 104.5053234400176 71.4252978072144 105.77562276650804 H 0.0 **** 0.06
2911 C 116.16309607870579 18.702727225273293 54.184345622896046 C 0.0 **** -0.24
2912 H 115.41098586645903 18.991877410079212 54.917559411872475 H 0.0 **** 0.06
2913 H 116.11763311508246 17.625361138680205 54.02238385463875 H 0.0 **** 0.06
2914 H 117.15267735605654 18.972640536769916 54.55313801783896 H 0.0 **** 0.06
2915 H 115.9720587817076 19.220019588488583 53.24449379809138 H 0.0 **** 0.06
2916 C 65.03698268889849 97.67933033611945 95.60036980286884 C 0.0 **** -0.24
2917 H 65.04999784718765 98.66722721125694 96.0623552776346 H 0.0 **** 0.06
2918 H 65.21267490638974 96.91989249649413 96.36279329814414 H 0.0 **** 0.06
2919 H 65.81722097119362 97.62235410839594 94.84217853877084 H 0.0 **** 0.06
2920 H 64.06542011304234 97.5106901652394 95.1355915770377 H 0.0 **** 0.06
2921 C 76.29638587345178 118.68318370671854 114.08391381853856 C 0.0 **** -0.24
2922 H 75.30693386013135 118.95854942383886 114.45106862254765 H 0.0 **** 0.06
2923 H 76.26631707884323 118.58724733799912 112.99908795877703 H 0.0 **** 0.06
2924 H 76.59556234331347 117.73318259342523 114.52635526648089 H 0.0 **** 0.06
2925 H 77.01447966855395 119.45517633276434 114.36136082976131 H 0.0 **** 0.06
2926 C 61.2154658569973 64.0638643372344 80.73022883544891 C 0.0 **** -0.24
2927 H 60.657108991299765 63.17093499506813 80.44878622980113 H 0.0 **** 0.06
2928 H 62.28347255894022 63.86659123128057 80.64116649130659 H 0.0 **** 0.06
2929 H 60.97917926655549 64.33033517505194 81.76028128781462 H 0.0 **** 0.06
2930 H 60.94139758221348 64.88595040248293 80.06934140976935 H 0.0 **** 0.06
2931 C 66.3962889325222 95.00598153024163 30.501361426054757 C 0.0 **** -0.24
2932 H 66.8476370439306 94.31198517878127 29.79249115500744 H 0.0 **** 0.06
2933 H 67.16141179312089 95.67748301536577 30.890073215211714 H 0.0 **** 0.06
2934 H 65.95212710005757 94.44553426095746 31.324738813676277 H 0.0 **** 0.06
2935 H 65.6234713465092 95.58666196052255 29.99893404108741 H 0.0 **** 0.06
2936 C 88.96145504466449 16.60465836891274 105.96326018106737 C 0.0 **** -0.24
2937 H 88.59532276229996 15.579723524937414 105.89639541202072 H 0.0 **** 0.06
2938 H 88.42208794237675 17.229996637526906 105.250848512565 H 0.0 **** 0.06
2939 H 90.02627975267512 16.625290580853672 105.73280467051094 H 0.0 **** 0.06
2940 H 88.80052028573371 16.981782486993 106.97314558340545 H 0.0 **** 0.06
2941 C 94.27617944099364 79.04523031642327 66.62368718609204 C 0.0 **** -0.24
2942 H 94.87598465438006 78.31761658916014 66.07689919929604 H 0.0 **** 0.06
2943 H 94.82215188102359 79.37544796577436 67.50703733799901 H 0.0 **** 0.06
2944 H 93.33492561490351 78.58660834976467 66.9270273699457 H 0.0 **** 0.06
2945 H 94.07240293554744 79.90276491732845 65.9807612242484 H 0.0 **** 0.06
2946 C 85.96272199224518 62.60725214117693 54.66185728612797 C 0.0 **** -0.24
2947 H 85.62367786389478 63.549540955459406 55.09083739144771 H 0.0 **** 0.06
2948 H 86.482933249106 62.80144055747189 53.72344304736259 H 0.0 **** 0.06
2949 H 85.102336041272 61.96429896786961 54.47444490947646 H 0.0 **** 0.06
2950 H 86.6403287286044 62.113482975706404 55.35811961530072 H 0.0 **** 0.06
2951 C 18.943098097844327 98.41956720784395 81.25647255823768 C 0.0 **** -0.24
2952 H 18.670060894439715 98.25352921976543 82.29896919925903 H 0.0 **** 0.06
2953 H 20.00845118841295 98.64264347581587 81.19170415116525 H 0.0 **** 0.06
2954 H 18.37079457750366 99.25859124232403 80.86044794807498 H 0.0 **** 0.06
2955 H 18.723262508292336 97.52287022088996 80.67637084190781 H 0.0 **** 0.06
2956 C 79.25734226137524 59.97975652822674 41.5709858262697 C 0.0 **** -0.24
2957 H 80.25211600616419 59.554934817056385 41.43382941302727 H 0.0 **** 0.06
2958 H 79.1211325879724 60.81361919425981 40.882663892899146 H 0.0 **** 0.06
2959 H 79.1523468990587 60.333227838045765 42.59646527840004 H 0.0 **** 0.06
2960 H 78.50589866673405 59.215528385077356 41.37171963234609 H 0.0 **** 0.06
2961 C 88.19971447212691 52.91111340402563 95.22183400615086 C 0.0 **** -0.24
2962 H 88.77578627116276 53.19293314781362 94.34004259976095 H 0.0 **** 0.06
2963 H 88.85542453304359 52.88947728487324 96.09199967784247 H 0.0 **** 0.06
2964 H 87.76375298668952 51.92284656902331 95.0696549182639 H 0.0 **** 0.06
2965 H 87.40438867635814 53.63829993462207 95.38365095661621 H 0.0 **** 0.06
2966 C 105.7495583299488 21.61018179844524 78.3341992653128 C 0.0 **** -0.24
2967 H 105.95794753142889 22.556956887754836 77.83687548091677 H 0.0 **** 0.06
2968 H 106.23487003372134 20.799018111413403 77.79079316376294 H 0.0 **** 0.06
2969 H 104.67332544884948 21.441035602667483 78.35641275369233 H 0.0 **** 0.06
2970 H 106.13330211211758 21.644024429430942 79.35456958839893 H 0.0 **** 0.06
2971 C 49.9038665028819 11.324519584115325 43.349805813935575 C 0.0 **** -0.24
2972 H 49.41720538888222 12.108740239846323 42.76991439903708 H 0.0 **** 0.06
2973 H 49.35925875717743 10.38845087110612 43.22120578683064 H 0.0 **** 0.06
2974 H 49.90787269797397 11.600936606204705 44.404229692952015 H 0.0 **** 0.06
2975 H 50.92929499101348 11.19876781910093 43.00276112052546 H 0.0 **** 0.06
2976 C 0.4481777652894152 42.83587920788413 57.03894372819039 C 0.0 **** -0.24
2977 H 0.11656108832792711 43.87246755202082 56.98596195416857 H 0.0 **** 0.06
2978 H 0.390702540355619 42.488019051482325 58.07054397143662 H 0.0 **** 0.06
2979 H 1.478353747999563 42.76547592956675 56.68869667805717 H 0.0 **** 0.06
2980 H -0.19214310267122414 42.217937654729084 56.409445075565145 H 0.0 **** 0.06
2981 C 32.76202091912804 56.18546948325769 55.34664245596906 C 0.0 **** -0.24
2982 H 32.709836421548836 57.10500643149075 54.76283789650921 H 0.0 **** 0.06
2983 H 33.434100639235425 55.48104276878587 54.85546525584584 H 0.0 **** 0.06
2984 H 31.766742493581354 55.747012619591516 55.42150620951634 H 0.0 **** 0.06
2985 H 33.137166441114545 56.410612100517085 56.34544965482519 H 0.0 **** 0.06
2986 C 63.93685187368055 61.90891450293855 96.08876892742285 C 0.0 **** -0.24
2987 H 63.1930432009093 62.508074692268174 95.5648387989578 H 0.0 **** 0.06
2988 H 64.47361167378182 62.536460870118155 96.80079185378713 H 0.0 **** 0.06
2989 H 64.64128881134786 61.493252627590145 95.36710901458684 H 0.0 **** 0.06
2990 H 63.441416897879776 61.09675974952223 96.62034765528949 H 0.0 **** 0.06
2991 C 49.46141758038334 16.711442387205068 50.11446941422879 C 0.0 **** -0.24
2992 H 49.10824467529039 17.45897664712635 49.403339593434886 H 0.0 **** 0.06
2993 H 49.628935393186055 17.18297569504952 51.082659082689304 H 0.0 **** 0.06
2994 H 50.39481726804547 16.28017056382589 49.75340883992792 H 0.0 **** 0.06
2995 H 48.712817223261254 15.926103651820085 50.216976394045766 H 0.0 **** 0.06
2996 C 94.2711487264051 40.261379905184754 122.14700191779474 C 0.0 **** -0.24
2997 H 93.2179143773995 40.28586883425041 122.42761705970302 H 0.0 **** 0.06
2998 H 94.57363370899145 41.24587120001914 121.78820959631395 H 0.0 **** 0.06
2999 H 94.41898609250399 39.52490560480783 121.35763203897152 H 0.0 **** 0.06
3000 H 94.87157867095519 39.99033931435909 123.01585003570689 H 0.0 **** 0.06
3001 C 78.36723877379129 5.6006836116089005 67.29968919352677 C 0.0 **** -0.24
3002 H 79.26668060025347 6.183335808470886 67.10416459182977 H 0.0 **** 0.06
3003 H 77.95912973190713 5.234603642457188 66.35712956972145 H 0.0 **** 0.06
3004 H 77.62802065770822 6.228751267205368 67.79647758327462 H 0.0 **** 0.06
3005 H 78.61468017036617 4.754946080398369 67.94175846459305 H 0.0 **** 0.06
3006 C 97.35869155304925 84.16224662131069 109.37410043637868 C 0.0 **** -0.24
3007 H 97.5576876681113 83.42462951899893 108.59583457140377 H 0.0 **** 0.06
3008 H 98.28405281428394 84.67787230876883 109.62993199917796 H 0.0 **** 0.06
3009 H 96.96594473270983 83.65989652108937 110.25786647767802 H 0.0 **** 0.06
3010 H 96.62705988630859 84.88432729963063 109.01106910412682 H 0.0 **** 0.06
3011 C 87.60525571649583 117.83263820836163 107.59417137954108 C 0.0 **** -0.24
3012 H 87.93043708058974 118.82321676783152 107.27498746758693 H 0.0 **** 0.06
3013 H 88.29484093455773 117.44918195674603 108.34659259982956 H 0.0 **** 0.06
3014 H 87.59256758940742 117.16099345436646 106.73558854525282 H 0.0 **** 0.06
3015 H 86.60309045585353 117.8986817292535 108.01822113582281 H 0.0 **** 0.06
3016 C 109.16177568648277 97.6922496535789 21.11042316030388 C 0.0 **** -0.24
3017 H 108.34852325799883 97.47162131461474 20.41874565349817 H 0.0 **** 0.06
3018 H 109.10351398520436 97.02097723005261 21.96692243543083 H 0.0 **** 0.06
3019 H 109.07916000229778 98.72473456881926 21.44969395104289 H 0.0 **** 0.06
3020 H 110.11630337368834 97.55262746000781 20.602736563029566 H 0.0 **** 0.06
3021 C 107.88745896335828 93.68206385289272 72.83672945831114 C 0.0 **** -0.24
3022 H 108.17281139887328 92.63809418778584 72.96908313120841 H 0.0 **** 0.06
3023 H 107.99747512465188 93.95794021594986 71.78712624541538 H 0.0 **** 0.06
3024 H 108.52963157770026 94.31508513520993 73.44893327004735 H 0.0 **** 0.06
3025 H 106.84917734663475 93.81558684886727 73.140749249131 H 0.0 **** 0.06
3026 C 122.4429416931052 31.912977678243976 80.82575944523671 C 0.0 **** -0.24
3027 H 122.18037240082778 31.641183109570875 81.84819781182637 H 0.0 **** 0.06
3028 H 121.63878589949012 32.5067698625528 80.39044408035551 H 0.0 **** 0.06
3029 H 122.58931126999194 31.00869667451599 80.23602655884318 H 0.0 **** 0.06
3030 H 123.36369206525424 32.49686904433122 80.83157233062136 H 0.0 **** 0.06
3031 C 104.86184080094094 106.92952229586919 32.56794888846596 C 0.0 **** -0.24
3032 H 105.78608407996498 106.44207304651681 32.25729838932915 H 0.0 **** 0.06
3033 H 104.64251088917501 106.66628150022669 33.60213153068176 H 0.0 **** 0.06
3034 H 104.04395649792713 106.59802388020566 31.926860523239384 H 0.0 **** 0.06
3035 H 104.97490391257571 108.00982326799141 32.48317500512346 H 0.0 **** 0.06
3036 C 104.08685584539359 62.70606700703225 76.52551886550356 C 0.0 **** -0.24
3037 H 104.5103925194218 62.675355223240565 75.52149814017417 H 0.0 **** 0.06
3038 H 103.3628099339156 61.898165455919106 76.63851364710632 H 0.0 **** 0.06
3039 H 103.59075036626712 63.66402709218968 76.68119145329894 H 0.0 **** 0.06
3040 H 104.88395206573492 62.5859885927625 77.25881477150773 H 0.0 **** 0.06
3041 C 13.50301250457974 46.682006972152124 13.5321511389174 C 0.0 **** -0.24
3042 H 12.913023059032955 47.56511451597879 13.776293760723334 H 0.0 **** 0.06
3043 H 13.553185244546757 46.02613610696241 14.401187514833008 H 0.0 **** 0.06
3044 H 14.510360617410626 46.98534967654115 13.245988347466746 H 0.0 **** 0.06
3045 H 13.034520099935083 46.15132516229423 12.70288408242299 H 0.0 **** 0.06
3046 C 42.220393530459006 35.04458223114435 115.47145463623977 C 0.0 **** -0.24
3047 H 41.21080869842707 34.872283113259016 115.09870861265468 H 0.0 **** 0.06
3048 H 42.61130815353481 34.12225572590816 115.90077000769233 H 0.0 **** 0.06
3049 H 42.19729184193274 35.82130558826498 116.23621231038013 H 0.0 **** 0.06
3050 H 42.861680889631 35.36447429505631 114.64922972492255 H 0.0 **** 0.06
3051 C 122.5063833262233 19.37896844182029 62.773853011752294 C 0.0 **** -0.24
3052 H 122.33926611233032 18.632380312595235 63.55062271000344 H 0.0 **** 0.06
3053 H 121.5756814167589 19.55823771667779 62.236406678373555 H 0.0 **** 0.06
3054 H 123.264481005752 19.01608566908349 62.07888020512479 H 0.0 **** 0.06
3055 H 122.84772020720193 20.307493197227377 63.231642318164404 H 0.0 **** 0.06
3056 C 67.13197853794597 106.13240436439574 60.29784716228556 C 0.0 **** -0.24
3057 H 67.93335024430061 105.90786225218369 59.59376238680593 H 0.0 **** 0.06
3058 H 66.86131566760648 105.22679495402483 60.84129299212599 H 0.0 **** 0.06
3059 H 66.26364838693047 106.50212327988018 59.75283084979602 H 0.0 **** 0.06
3060 H 67.46968531189373 106.89222051013277 61.002232466287786 H 0.0 **** 0.06
3061 C 14.204288573257465 32.299460758826484 107.69522937027494 C 0.0 **** -0.24
3062 H 14.944849508672593 31.662705603496704 107.21203121077377 H 0.0 **** 0.06
3063 H 14.690469394812823 32.9060998370779 108.45921193801496 H 0.0 **** 0.06
3064 H 13.437382169967922 31.677483517522575 108.15823053618396 H 0.0 **** 0.06
3065 H 13.744707462638129 32.950300459801014 106.9520470499591 H 0.0 **** 0.06
3066 C 65.81666759743916 96.03766365438892 91.9338921641426 C 0.0 **** -0.24
3067 H 66.89439146596914 96.07284511915447 92.09573685010434 H 0.0 **** 0.06
3068 H 65.60752765057458 96.11605734154497 90.86702429932203 H 0.0 **** 0.06
3069 H 65.3437744959117 96.86668031435309 92.45966262567319 H 0.0 **** 0.06
3070 H 65.42320058131946 95.09485915184726 92.31324355612301 H 0.0 **** 0.06
3071 C 12.08606095804521 103.7628063123625 26.133839441101287 C 0.0 **** -0.24
3072 H 11.879775710613927 102.93789903796608 25.451858858083312 H 0.0 **** 0.06
3073 H 12.689369416953213 104.51354933646573 25.6229069850302 H 0.0 **** 0.06
3074 H 12.627847255370945 103.3891181201208 27.002115788338273 H 0.0 **** 0.06
3075 H 11.14619192376081 104.20994115995191 26.45664235500618 H 0.0 **** 0.06
3076 C 88.60645920861458 40.27330331836228 113.15380413803305 C 0.0 **** -0.24
3077 H 89.32133035599054 39.65039569358558 113.69220316173752 H 0.0 **** 0.06
3078 H 88.12302471795843 39.6824857820892 112.37541034768493 H 0.0 **** 0.06
3079 H 89.12802011405381 41.11566489536624 112.69960669965273 H 0.0 **** 0.06
3080 H 87.85344303664209 40.644528523857105 113.84898657571382 H 0.0 **** 0.06
3081 C 31.251680960192886 111.40696144287887 7.152861901539296 C 0.0 **** -0.24
3082 H 31.068409328593106 111.76259527470103 6.139011218377959 H 0.0 **** 0.06
3083 H 30.660685473512984 110.50928938401296 7.334160910513447 H 0.0 **** 0.06
3084 H 30.967452814260014 112.18058890271408 7.866076480504262 H 0.0 **** 0.06
3085 H 32.30999496378544 111.17579088375311 7.269792299663038 H 0.0 **** 0.06
3086 C 47.493836909326745 18.705246430418384 59.10086582324158 C 0.0 **** -0.24
3087 H 47.87338794270906 19.592231492577923 58.59235750185783 H 0.0 **** 0.06
3088 H 47.59889648386607 18.83139438947302 60.17811243793355 H 0.0 **** 0.06
3089 H 48.061365766616944 17.831937356300074 58.77897546724586 H 0.0 **** 0.06
3090 H 46.442081255369914 18.566500564298195 58.85124463309285 H 0.0 **** 0.06
3091 C 10.693236131275114 28.050261953279943 60.71827889996987 C 0.0 **** -0.24
3092 H 9.685951090166213 28.33833944567965 60.417396305489866 H 0.0 **** 0.06
3093 H 10.677828431456646 27.030546571716997 61.10608091520793 H 0.0 **** 0.06
3094 H 11.04910664630421 28.72909670003233 61.49342514676933 H 0.0 **** 0.06
3095 H 11.358507935085242 28.10116910249451 59.85617157759368 H 0.0 **** 0.06
3096 C 5.55221538195147 94.09540943622795 80.96676129150924 C 0.0 **** -0.24
3097 H 4.689168589751802 93.6214425606835 80.49868352907717 H 0.0 **** 0.06
3098 H 6.350347578011082 93.36197044754198 81.08290945247228 H 0.0 **** 0.06
3099 H 5.267631548799855 94.48180461742913 81.94629231592987 H 0.0 **** 0.06
3100 H 5.899732941988759 94.91545301152965 80.33953555187017 H 0.0 **** 0.06
3101 C 90.56406417963765 52.65361348099211 44.08095137338444 C 0.0 **** -0.24
3102 H 90.43949483224927 53.399786374048006 44.86545159637254 H 0.0 **** 0.06
3103 H 89.58953606380248 52.24509427497901 43.811928721993354 H 0.0 **** 0.06
3104 H 91.20780229019135 51.851546175891514 44.44041951782211 H 0.0 **** 0.06
3105 H 91.01725438536158 53.119152296709785 43.20583517060916 H 0.0 **** 0.06
3106 C 112.32305329824626 88.40480297829987 76.61604239579324 C 0.0 **** -0.24
3107 H 112.71467514976973 88.39608919888377 75.59901854814123 H 0.0 **** 0.06
3108 H 111.44957543658484 89.05679430345617 76.66286104232447 H 0.0 **** 0.06
3109 H 113.0900282884648 88.77385155549246 77.29671311068981 H 0.0 **** 0.06
3110 H 112.03717379180799 87.39329546245295 76.90425338321282 H 0.0 **** 0.06
3111 C 27.445746044421938 106.77724118148956 37.021572277055625 C 0.0 **** -0.24
3112 H 27.112701592499768 105.76459238381267 36.798133617770624 H 0.0 **** 0.06
3113 H 27.56793250789825 106.88937759228054 38.09981303598905 H 0.0 **** 0.06
3114 H 26.70486657752666 107.4918604951364 36.66321215678507 H 0.0 **** 0.06
3115 H 28.399053397625906 106.96374009049453 36.52691038691711 H 0.0 **** 0.06
3116 C 70.51650591698973 116.99093086250696 71.88811389656206 C 0.0 **** -0.24
3117 H 71.1895849553604 117.22174449401138 71.06160504695796 H 0.0 **** 0.06
3118 H 69.49282724343271 116.9368346625887 71.51895180590236 H 0.0 **** 0.06
3119 H 70.59020191691332 117.77264188681477 72.64478552694135 H 0.0 **** 0.06
3120 H 70.79683191371538 116.03298429678608 72.3268767919233 H 0.0 **** 0.06
3121 C 58.27776357654383 53.80515678746127 70.55615466257379 C 0.0 **** -0.24
3122 H 58.65057176440291 54.454546934781774 71.34829014633141 H 0.0 **** 0.06
3123 H 58.450979238420445 52.76372579191121 70.82846511100672 H 0.0 **** 0.06
3124 H 58.801696510921424 54.02994420333005 69.6266682044066 H 0.0 **** 0.06
3125 H 57.20974229491668 53.97344300088952 70.42010545125711 H 0.0 **** 0.06
3126 C 14.042186708312158 98.77641730847733 20.12262196350588 C 0.0 **** -0.24
3127 H 13.94369897866278 98.00091240291977 19.36301124843635 H 0.0 **** 0.06
3128 H 14.274365993307356 99.72751876627066 19.64290438503224 H 0.0 **** 0.06
3129 H 14.845082034573124 98.51085169291147 20.81073907539428 H 0.0 **** 0.06
3130 H 13.106422103161435 98.86615818983057 20.67331175271937 H 0.0 **** 0.06
3131 C 115.64251123070198 24.402347298390623 67.9883781317204 C 0.0 **** -0.24
3132 H 115.99795303084855 23.393922588915615 68.20105601676005 H 0.0 **** 0.06
3133 H 115.86426569494664 25.051659011456735 68.83655824360082 H 0.0 **** 0.06
3134 H 114.56621776326759 24.379952268905896 67.8191595374227 H 0.0 **** 0.06
3135 H 116.14320495445112 24.78331637578387 67.09851664645419 H 0.0 **** 0.06
3136 C 22.76965470664024 56.61946860274514 120.0661128390087 C 0.0 **** -0.24
3137 H 21.723704614261493 56.567777282710104 120.36632521205557 H 0.0 **** 0.06
3138 H 23.34842455398237 55.89542305867807 120.64122739035766 H 0.0 **** 0.06
3139 H 23.15281927706647 57.62227129595325 120.25491643554811 H 0.0 **** 0.06
3140 H 22.854948688793968 56.390933527257495 119.0034681104107 H 0.0 **** 0.06
3141 C 113.22340684840879 98.72531855366634 108.23734759148107 C 0.0 **** -0.24
3142 H 113.89030828924328 99.51441602258251 108.5847433062591 H 0.0 **** 0.06
3143 H 112.19721815552649 99.09251564142221 108.2341564171071 H 0.0 **** 0.06
3144 H 113.29937358400886 97.86573579332594 108.90435414539684 H 0.0 **** 0.06
3145 H 113.50777051976979 98.42846979473535 107.22810965386685 H 0.0 **** 0.06
3146 C 43.33457164901921 118.73873159411914 121.03287692907323 C 0.0 **** -0.24
3147 H 44.37420550299316 118.54224345024926 120.76945515889194 H 0.0 **** 0.06
3148 H 42.754104311489186 117.82162550758915 120.93094929476078 H 0.0 **** 0.06
3149 H 42.929725226479036 119.50227117079564 120.36981303203657 H 0.0 **** 0.06
3150 H 43.28163727026646 119.08908258517914 122.06460575489353 H 0.0 **** 0.06
3151 C 9.18177950711808 79.15705840335775 87.43086738956197 C 0.0 **** -0.24
3152 H 9.382573460415088 80.01922479184603 88.06592169548517 H 0.0 **** 0.06
3153 H 8.84217162091575 78.32358867434016 88.04670412766865 H 0.0 **** 0.06
3154 H 10.092729158769046 78.87233628138682 86.9044329962536 H 0.0 **** 0.06
3155 H 8.408263547967806 79.413078510296 86.70671899047201 H 0.0 **** 0.06
3156 C 21.865904637876724 43.01728110307232 106.74975632340676 C 0.0 **** -0.24
3157 H 22.757529815981485 43.473582938077016 107.1815206006811 H 0.0 **** 0.06
3158 H 21.508170289961072 42.22464274249876 107.40779413341221 H 0.0 **** 0.06
3159 H 22.110221290625134 42.59690995295858 105.77387485809038 H 0.0 **** 0.06
3160 H 21.090681137758708 43.77407342288916 106.63613433644821 H 0.0 **** 0.06
3161 C 30.69259301996371 116.42651085025977 50.84865134636093 C 0.0 **** -0.24
3162 H 30.933768694822845 117.47571946296662 50.67644292310061 H 0.0 **** 0.06
3163 H 30.665773186457017 115.89918072544113 49.89554709439877 H 0.0 **** 0.06
3164 H 29.717567263280046 116.35290530697243 51.331658798210604 H 0.0 **** 0.06
3165 H 31.451343492880966 115.98044388166842 51.49162732425541 H 0.0 **** 0.06
3166 C 100.11693852590699 41.11074987878942 120.91327336248315 C 0.0 **** -0.24
3167 H 101.07844472395502 41.1466996488474 121.42547700978747 H 0.0 **** 0.06
3168 H 99.95138428046607 40.10729801120465 120.52006690687945 H 0.0 **** 0.06
3169 H 100.11712053936631 41.82743324568503 120.09160488615235 H 0.0 **** 0.06
3170 H 99.32171849647372 41.36278229596144 121.61430392680714 H 0.0 **** 0.06
3171 C 3.663884505591767 86.05328804609968 12.83632393157123 C 0.0 **** -0.24
3172 H 3.4425618875167316 85.91011030816836 13.894214564767381 H 0.0 **** 0.06
3173 H 2.7497236760686405 85.9383131399984 12.254599912930729 H 0.0 **** 0.06
3174 H 4.395770191170513 85.31118381996862 12.515952521149302 H 0.0 **** 0.06
3175 H 4.0691411141928455 87.0532820492003 12.682804595233819 H 0.0 **** 0.06
3176 C 87.12511128348933 9.667914801610266 50.208323791986516 C 0.0 **** -0.24
3177 H 86.59182177391318 9.019937955221934 49.513216319642765 H 0.0 **** 0.06
3178 H 87.83569018570341 10.284404675971302 49.65868306283397 H 0.0 **** 0.06
3179 H 87.6592489587693 9.057499995829232 50.93698618288707 H 0.0 **** 0.06
3180 H 86.41071683119588 10.309191084000219 50.72636001511866 H 0.0 **** 0.06
3181 C 38.1217146089914 47.62506110777156 29.576438052224148 C 0.0 **** -0.24
3182 H 38.291353209216254 47.682007625104916 30.651565932269676 H 0.0 **** 0.06
3183 H 38.04497519603967 48.63298410830697 29.167052551123135 H 0.0 **** 0.06
3184 H 37.19647591567889 47.08295593254053 29.382997034313405 H 0.0 **** 0.06
3185 H 38.95408225780682 47.102110430382254 29.105118802694875 H 0.0 **** 0.06
3186 C 53.8638325909302 69.80095609785428 106.56286329582088 C 0.0 **** -0.24
3187 H 53.2555153685764 70.55064501060639 106.05587525172774 H 0.0 **** 0.06
3188 H 54.71301535555537 69.53594932302457 105.93319341787807 H 0.0 **** 0.06
3189 H 53.260434687299664 68.9132700574171 106.75230348394004 H 0.0 **** 0.06
3190 H 54.22289909903995 70.20471029400295 107.5088870029414 H 0.0 **** 0.06
3191 C 82.16995519273391 18.124184007926402 120.67398165117979 C 0.0 **** -0.24
3192 H 83.14076457031263 18.620163623541202 120.68317552935414 H 0.0 **** 0.06
3193 H 81.82961384785645 18.012621788437144 119.64450956868276 H 0.0 **** 0.06
3194 H 81.45060322062159 18.72444261771031 121.23202603231664 H 0.0 **** 0.06
3195 H 82.25938428151738 17.14163059831276 121.13666008142837 H 0.0 **** 0.06
3196 C 71.80266670384282 84.13470155272526 11.558020606249315 C 0.0 **** -0.24
3197 H 71.62336103337492 83.27541464176136 12.204349949090254 H 0.0 **** 0.06
3198 H 72.17279241419479 84.96844347427003 12.155309094971244 H 0.0 **** 0.06
3199 H 70.87142444043903 84.42292201264758 11.069791179651858 H 0.0 **** 0.06
3200 H 72.54261723190268 83.87328974615946 10.802207032880347 H 0.0 **** 0.06
3201 C 99.21275918506913 109.64989360854162 105.25062626182583 C 0.0 **** -0.24
3202 H 99.7532717994587 109.93424681754857 104.34771236541346 H 0.0 **** 0.06
3203 H 99.80534496874083 109.91274267244904 106.12725595701448 H 0.0 **** 0.06
3204 H 99.03174420797401 108.57461568744753 105.24225053211444 H 0.0 **** 0.06
3205 H 98.25951114253334 110.17761942045513 105.28456412454312 H 0.0 **** 0.06
3206 C 1.5275561683918397 119.28499844037606 96.4388760967635 C 0.0 **** -0.24
3207 H 1.7038900959230148 118.2713232128454 96.07815869469636 H 0.0 **** 0.06
3208 H 2.4834786424347897 119.7935227978989 96.57084361187395 H 0.0 **** 0.06
3209 H 1.0020214237386824 119.24521149855201 97.39227752582502 H 0.0 **** 0.06
3210 H 0.9231094982075945 119.8280735128642 95.71213760446759 H 0.0 **** 0.06
3211 C 10.2864043838199 29.827380583904876 93.72498337711588 C 0.0 **** -0.24
3212 H 10.723514935175018 28.91673914734222 94.13552169693546 H 0.0 **** 0.06
3213 H 10.934978477784824 30.220507155698805 92.941762270536 H 0.0 **** 0.06
3214 H 10.183396469128809 30.56854967850628 94.51800602003232 H 0.0 **** 0.06
3215 H 9.305390881080086 29.603414505487613 93.30641461029236 H 0.0 **** 0.06
3216 C 28.810022347501103 25.312041186223496 112.24670240327413 C 0.0 **** -0.24
3217 H 29.5817882665485 25.496055376146387 112.99494189865774 H 0.0 **** 0.06
3218 H 28.47531619305863 26.261946806958406 111.82948393690543 H 0.0 **** 0.06
3219 H 27.967349532476902 24.80155106119605 112.71139521215622 H 0.0 **** 0.06
3220 H 29.218478298489316 24.68931452518393 111.45033727915481 H 0.0 **** 0.06
3221 C 49.285522479581914 47.35099199137335 2.927122409773119 C 0.0 **** -0.24
3222 H 50.27199417048041 46.920317418323336 3.100365513880691 H 0.0 **** 0.06
3223 H 49.17163445861655 47.58549644075369 1.8690216207541024 H 0.0 **** 0.06
3224 H 49.17883755941432 48.26238252809917 3.516336977590756 H 0.0 **** 0.06
3225 H 48.52026476245163 46.63384841869416 3.2251926838150258 H 0.0 **** 0.06
3226 C 53.60212529482192 81.4694673810659 112.79478052493386 C 0.0 **** -0.24
3227 H 54.3271391212333 81.55073182887304 113.60462938135714 H 0.0 **** 0.06
3228 H 53.655391423969945 80.47174307839435 112.35831735031343 H 0.0 **** 0.06
3229 H 53.826279549091794 82.2137531550963 112.03101835342028 H 0.0 **** 0.06
3230 H 52.59899095016121 81.64164651332476 113.18703051627227 H 0.0 **** 0.06
3231 C 13.308206775946132 52.95058838068098 62.39068397794248 C 0.0 **** -0.24
3232 H 12.359569594551033 53.468006172453016 62.2457961416575 H 0.0 **** 0.06
3233 H 14.019291143328076 53.278642824449264 61.6324845088815 H 0.0 **** 0.06
3234 H 13.152749129038057 51.87506008067305 62.30295739098339 H 0.0 **** 0.06
3235 H 13.699777916115295 53.18160533087601 63.38157012935498 H 0.0 **** 0.06
3236 C 4.954515412836599 111.60407795410693 91.64521481962038 C 0.0 **** -0.24
3237 H 4.898072343935045 111.8125726109755 92.71333103763448 H 0.0 **** 0.06
3238 H 5.991954498727058 111.66718750383322 91.31752223278482 H 0.0 **** 0.06
3239 H 4.356144551783169 112.33560887632025 91.10057728240639 H 0.0 **** 0.06
3240 H 4.570632957909131 110.60248774804663 91.44960937890619 H 0.0 **** 0.06
3241 C 95.35706870302099 120.23060494936377 12.632571540717535 C 0.0 **** -0.24
3242 H 95.28346103816122 119.90489925950519 13.670492001141028 H 0.0 **** 0.06
3243 H 95.74367576512498 121.24968925148764 12.599204641513808 H 0.0 **** 0.06
3244 H 94.37058294802586 120.20099047408027 12.171577093252779 H 0.0 **** 0.06
3245 H 96.03205623479673 119.56814441721664 12.090443309542437 H 0.0 **** 0.06
3246 C 12.11350949911784 81.28359822203043 29.12203330513323 C 0.0 **** -0.24
3247 H 12.938910899978083 81.72374580516106 28.562101357427004 H 0.0 **** 0.06
3248 H 11.234537023400264 81.92077096068016 29.035515654429197 H 0.0 **** 0.06
3249 H 12.395959514867144 81.19316689181363 30.171436637273224 H 0.0 **** 0.06
3250 H 11.888810693747445 80.29563154521514 28.71968464917277 H 0.0 **** 0.06
3251 C 111.37970141797639 28.751176699487274 119.14148027248964 C 0.0 **** -0.24
3252 H 111.3575721938523 28.816404187429583 120.22941033199973 H 0.0 **** 0.06
3253 H 112.38425627099214 28.48055487356359 118.81495377597537 H 0.0 **** 0.06
3254 H 111.10632297808803 29.716595512070455 118.71484118342892 H 0.0 **** 0.06
3255 H 110.67185755778937 27.992532941137227 118.80834243814817 H 0.0 **** 0.06
3256 C 113.6283453985921 1.0144932222742309 115.05373275971212 C 0.0 **** -0.24
3257 H 113.02791901658867 1.6261679072562565 114.38094577707274 H 0.0 **** 0.06
3258 H 114.68584898771698 1.1942874100501601 114.86014469470501 H 0.0 **** 0.06
3259 H 113.40198803613458 -0.03913391768064578 114.88556793130114 H 0.0 **** 0.06
3260 H 113.39726938927515 1.2751210822400036 116.08639345125978 H 0.0 **** 0.06
3261 C 55.18113705592658 100.28292138035633 32.91422778266797 C 0.0 **** -0.24
3262 H 54.918846158531615 99.77975799372695 31.983672459473347 H 0.0 **** 0.06
3263 H 54.39142801722192 100.98583630484887 33.182144655101084 H 0.0 **** 0.06
3264 H 56.11876800938517 100.82305745673432 32.782738817345724 H 0.0 **** 0.06
3265 H 55.29591819241384 99.54433648794952 33.70729067443735 H 0.0 **** 0.06
3266 C 105.2811429094836 121.80583451834266 121.06583175172014 C 0.0 **** -0.24
3267 H 104.36786628416422 122.16807909681458 121.53773088665103 H 0.0 **** 0.06
3268 H 106.0204732592889 122.60686057042355 121.04475902261018 H 0.0 **** 0.06
3269 H 105.06071634689488 121.4878784685529 120.04621649259586 H 0.0 **** 0.06
3270 H 105.67399751415707 120.96247851190617 121.63292961276366 H 0.0 **** 0.06
3271 C 77.65888867869387 114.00613743564145 21.32681866373315 C 0.0 **** -0.24
3272 H 77.67340968259433 114.23211336173733 22.392966468564623 H 0.0 **** 0.06
3273 H 76.64125818912146 114.10189138707969 20.94854828241239 H 0.0 **** 0.06
3274 H 78.01265752718277 112.98733263697781 21.166738843859775 H 0.0 **** 0.06
3275 H 78.31011989648104 114.70376528604821 20.799367754260174 H 0.0 **** 0.06
3276 C 76.48754980905551 106.18138021313135 77.09057033098645 C 0.0 **** -0.24
3277 H 77.17204646426384 105.7541091060815 76.35766183227366 H 0.0 **** 0.06
3278 H 77.05426106998229 106.55669238227136 77.94231102925201 H 0.0 **** 0.06
3279 H 75.79003040563805 105.41302488682837 77.42658818561304 H 0.0 **** 0.06
3280 H 75.93238399512214 107.00070227953381 76.633521738674 H 0.0 **** 0.06
3281 C 103.00373413027333 52.379818642195794 30.234888253811363 C 0.0 **** -0.24
3282 H 102.23863002351061 51.6149470695334 30.103209505452014 H 0.0 **** 0.06
3283 H 103.97259083965605 51.9034494956874 30.380864882931178 H 0.0 **** 0.06
3284 H 102.76216394649873 52.98967002310025 31.105768442068893 H 0.0 **** 0.06
3285 H 103.03925230622622 53.013450272038874 29.347790381814008 H 0.0 **** 0.06
3286 C 96.74962092380844 101.73457915972838 70.60712637925451 C 0.0 **** -0.24
3287 H 96.7773826375032 102.24519019215344 69.6447746957133 H 0.0 **** 0.06
3288 H 96.10827076343736 100.85613892879081 70.53377873909636 H 0.0 **** 0.06
3289 H 96.35454061080765 102.41107494441886 71.36502091725998 H 0.0 **** 0.06
3290 H 97.75723543081534 101.42728423067456 70.88501645872998 H 0.0 **** 0.06
3291 C 118.00469765256088 103.49413807039508 1.110608090663277 C 0.0 **** -0.24
3292 H 117.35901711900493 104.37279234028603 1.0721557768056371 H 0.0 **** 0.06
3293 H 118.5297646584045 103.47269840934115 2.0662168905859932 H 0.0 **** 0.06
3294 H 118.72940699242173 103.54081077032998 0.2978995645732354 H 0.0 **** 0.06
3295 H 117.40011007615655 102.59369532334682 1.007536336241774 H 0.0 **** 0.06
3296 C 30.857229629438223 26.625478458098897 8.073869792241794 C 0.0 **** -0.24
3297 H 31.16694862770072 26.073452628155053 8.960525127031843 H 0.0 **** 0.06
3298 H 31.210139378566566 27.65403091779541 8.144965807112044 H 0.0 **** 0.06
3299 H 29.769515152942745 26.61849337813399 8.002283716905396 H 0.0 **** 0.06
3300 H 31.28199546138535 26.15567896126609 7.1867928245522705 H 0.0 **** 0.06
3301 C 56.401957631415314 76.34287410258986 34.151048984311615 C 0.0 **** -0.24
3302 H 57.37562898405159 76.60740754502137 33.73967417202908 H 0.0 **** 0.06
3303 H 56.48523015131582 76.21944311721751 35.230613054665554 H 0.0 **** 0.06
3304 H 56.05978952662409 75.40967511495612 33.702879590866445 H 0.0 **** 0.06
3305 H 55.68703332016122 77.13568635991001 33.928915840630225 H 0.0 **** 0.06
3306 C 49.11310125347117 99.44445214996182 39.763312423701336 C 0.0 **** -0.24
3307 H 49.24487277591659 98.37857810267113 39.95184613435066 H 0.0 **** 0.06
3308 H 50.07556163566182 99.94892103422563 39.84318880546715 H 0.0 **** 0.06
3309 H 48.42195390283464 99.85961982068989 40.49621570761013 H 0.0 **** 0.06
3310 H 48.70893576842602 99.58883451839114 38.761374241954485 H 0.0 **** 0.06
3311 C 6.0367471075737456 55.16208556810067 59.73025035201718 C 0.0 **** -0.24
3312 H 5.916084963397793 56.24517175544481 59.69743083336286 H 0.0 **** 0.06
3313 H 6.344190221272726 54.801127358283374 58.74828696916873 H 0.0 **** 0.06
3314 H 5.088431384231029 54.70052528606862 60.007195429912684 H 0.0 **** 0.06
3315 H 6.795887189359632 54.903990890917946 60.4677003686769 H 0.0 **** 0.06
3316 C 36.0168688404228 2.9249895799416095 16.71659199015035 C 0.0 **** -0.24
3317 H 37.02005943646026 2.951482881341555 17.140940679261547 H 0.0 **** 0.06
3318 H 35.89854589599224 2.020837031839342 16.120253223526035 H 0.0 **** 0.06
3319 H 35.86642886021528 3.800287281967128 16.084831859255715 H 0.0 **** 0.06
3320 H 35.282135452797036 2.9274582135321356 17.52255474186062 H 0.0 **** 0.06
3321 C 58.18644293287625 100.62870704923958 24.70241143338913 C 0.0 **** -0.24
3322 H 58.728113272212966 101.2903875064519 25.378055070211417 H 0.0 **** 0.06
3323 H 58.8176812882254 100.38445463960613 23.84785421224862 H 0.0 **** 0.06
3324 H 57.280950768806974 101.12626048664262 24.355205957241424 H 0.0 **** 0.06
3325 H 57.917732112616136 99.71220329914507 25.229534387056447 H 0.0 **** 0.06
3326 C 63.997109601396915 68.38624712439125 57.139784989882 C 0.0 **** -0.24
3327 H 63.33035234083809 67.77997266417577 57.75335339780841 H 0.0 **** 0.06
3328 H 64.8964351941288 68.62626927031863 57.708430810085304 H 0.0 **** 0.06
3329 H 63.49078535168769 69.30900852425009 56.85543078113406 H 0.0 **** 0.06
3330 H 64.27109710691218 67.8300728859816 56.242838370767686 H 0.0 **** 0.06
3331 C 22.439620130548953 52.90195756717125 93.71484783849169 C 0.0 **** -0.24
3332 H 23.38714883023517 53.43510842417302 93.78876416876057 H 0.0 **** 0.06
3333 H 21.67299656208104 53.57406020854572 93.32962393250125 H 0.0 **** 0.06
3334 H 22.146562979270406 52.54381696762883 94.70193697725091 H 0.0 **** 0.06
3335 H 22.55212932344334 52.053492367409035 93.0388569405782 H 0.0 **** 0.06
3336 C 102.0104803256803 28.237870072535657 69.3807022875402 C 0.0 **** -0.24
3337 H 102.59451808461051 29.156933205833937 69.33123523739229 H 0.0 **** 0.06
3338 H 102.50095978862998 27.464440153344782 68.7905437265355 H 0.0 **** 0.06
3339 H 101.0121654080665 28.421651459837484 68.98298394108488 H 0.0 **** 0.06
3340 H 101.93472455144251 27.911416192519482 70.41785852000527 H 0.0 **** 0.06
3341 C 54.35694607727646 54.37804939867351 73.28005672569577 C 0.0 **** -0.24
3342 H 55.01056760464533 54.11217338078416 74.11125345931069 H 0.0 **** 0.06
3343 H 53.490986370584125 54.92163399776496 73.65916192767827 H 0.0 **** 0.06
3344 H 54.02417957115682 53.47023826308907 72.77587662246142 H 0.0 **** 0.06
3345 H 54.90126677857924 55.00603864511032 72.57615296795291 H 0.0 **** 0.06
3346 C 64.814138706513 48.191492472323546 77.48277599261604 C 0.0 **** -0.24
3347 H 65.33912828825095 48.31777933421529 78.42935967502075 H 0.0 **** 0.06
3348 H 65.44233390871727 48.55249647950171 76.6681380049892 H 0.0 **** 0.06
3349 H 63.88465276336228 48.76045503043542 77.5053286398333 H 0.0 **** 0.06
3350 H 64.59085126655106 47.136076511860836 77.32973695382401 H 0.0 **** 0.06
3351 C 79.0825607482588 32.39143172704493 64.80084418701801 C 0.0 **** -0.24
3352 H 78.1482516194192 32.757083460328914 65.22703827484975 H 0.0 **** 0.06
3353 H 78.88569368239334 31.94473169673762 63.82607929713185 H 0.0 **** 0.06
3354 H 79.51597024164889 31.642874277947215 65.46365189051295 H 0.0 **** 0.06
3355 H 79.77914141197533 33.22150197480693 64.68599274154715 H 0.0 **** 0.06
3356 C 64.74104940127631 59.08944715022926 40.299781298213475 C 0.0 **** -0.24
3357 H 65.19686709824597 60.043354985387396 40.56370203854755 H 0.0 **** 0.06
3358 H 64.10596347581432 59.220192023278514 39.42368040914846 H 0.0 **** 0.06
3359 H 64.14019386640825 58.730429935816915 41.13481563585316 H 0.0 **** 0.06
3360 H 65.522389600737 58.36272901106901 40.07633691508647 H 0.0 **** 0.06
3361 C 41.80983649914123 97.5292443655195 14.963432383322413 C 0.0 **** -0.24
3362 H 42.62884078542788 97.23994587849631 15.622180826018166 H 0.0 **** 0.06
3363 H 40.859686810149356 97.27560387506497 15.433008971735376 H 0.0 **** 0.06
3364 H 41.90121962000222 96.99865801328434 14.01643961812951 H 0.0 **** 0.06
3365 H 41.85241957523351 98.60352259454231 14.78367392639359 H 0.0 **** 0.06
3366 C 12.452518295610702 93.60532028955001 13.499916719564794 C 0.0 **** -0.24
3367 H 12.590567350997873 94.6864576314635 13.500707274499291 H 0.0 **** 0.06
3368 H 12.386779695276715 93.24696477943144 14.527867091602161 H 0.0 **** 0.06
3369 H 13.298399429102801 93.13176876040069 13.002963894977086 H 0.0 **** 0.06
3370 H 11.532966801833112 93.35707176825721 12.968560971342356 H 0.0 **** 0.06
3371 C 74.64327854115314 108.13891236484756 50.32076579838392 C 0.0 **** -0.24
3372 H 73.97320351967483 108.0947786277788 49.46238372182583 H 0.0 **** 0.06
3373 H 74.16986501291635 108.70664034483787 51.122084540141856 H 0.0 **** 0.06
3374 H 75.57407496928684 108.62642295770638 50.0313119241668 H 0.0 **** 0.06
3375 H 74.8560986878137 107.12781469568574 50.66869143544102 H 0.0 **** 0.06
3376 C 41.5672166156657 113.18032191650676 63.853170933342625 C 0.0 **** -0.24
3377 H 41.3257660857935 114.21790915046446 63.622267255971565 H 0.0 **** 0.06
3378 H 42.32662553042972 112.82102430064927 63.15984174496205 H 0.0 **** 0.06
3379 H 40.66946748479775 112.56898839011433 63.75863006666444 H 0.0 **** 0.06
3380 H 41.945927000083906 113.11462571357873 64.87344325760506 H 0.0 **** 0.06
3381 C 29.143341760422857 68.59110905667782 118.19634372621182 C 0.0 **** -0.24
3382 H 29.753913664590385 68.33545863741665 117.33042690886612 H 0.0 **** 0.06
3383 H 28.0958803662339 68.38262771250041 117.97639751280292 H 0.0 **** 0.06
3384 H 29.262063850685536 69.65109359329293 118.42506425607291 H 0.0 **** 0.06
3385 H 29.460088113667922 67.99675583245914 119.05263050633303 H 0.0 **** 0.06
3386 C 50.23448478878586 2.391110758068166 72.14167639971566 C 0.0 **** -0.24
3387 H 50.13197733755294 2.9254517515543768 73.08663359591657 H 0.0 **** 0.06
3388 H 50.75636408652123 1.4492163295350764 72.31148225176716 H 0.0 **** 0.06
3389 H 50.80454311135452 3.000851560357745 71.43939661594393 H 0.0 **** 0.06
3390 H 49.24600810344333 2.190927237491991 71.72946835447388 H 0.0 **** 0.06
3391 C 51.257442122755094 107.05738967599132 120.24773389937934 C 0.0 **** -0.24
3392 H 50.29120087266904 106.73722257550753 119.85684510547136 H 0.0 **** 0.06
3393 H 51.37251862255931 106.69852606727048 121.27065836150747 H 0.0 **** 0.06
3394 H 51.31059080841493 108.14587694232813 120.2351720601192 H 0.0 **** 0.06
3395 H 52.0540274809303 106.64749018243901 119.62586062638148 H 0.0 **** 0.06
3396 C 113.95560237512632 73.61618819532097 82.4963119010618 C 0.0 **** -0.24
3397 H 114.9416145376066 73.1768736315698 82.64219462585737 H 0.0 **** 0.06
3398 H 114.0491719136499 74.69865721546068 82.40912996134631 H 0.0 **** 0.06
3399 H 113.31921394260831 73.37349636885932 83.34777394517681 H 0.0 **** 0.06
3400 H 113.51125985335352 73.21534386672096 81.58541856907323 H 0.0 **** 0.06
3401 C 79.17383197227039 7.199483960301279 84.94708987278759 C 0.0 **** -0.24
3402 H 79.42753726481618 7.142491586153255 86.00601605978903 H 0.0 **** 0.06
3403 H 79.06235746288044 6.192571946236853 84.54586959312039 H 0.0 **** 0.06
3404 H 79.9682260950162 7.719307500874805 84.41181744081587 H 0.0 **** 0.06
3405 H 78.23735928937839 7.744493610179802 84.82750502086793 H 0.0 **** 0.06
3406 C 29.57987037296735 1.0299699453999551 67.28341422396801 C 0.0 **** -0.24
3407 H 28.861808606616307 1.8099470375915132 67.03144174705827 H 0.0 **** 0.06
3408 H 29.23286952861119 0.48902771642622156 68.16434560710934 H 0.0 **** 0.06
3409 H 30.549337102987394 1.4817662456341338 67.49120604121799 H 0.0 **** 0.06
3410 H 29.672715205484792 0.3386822729239043 66.44555722997521 H 0.0 **** 0.06
3411 C 21.103874057686483 71.53748049720136 39.37427094687246 C 0.0 **** -0.24
3412 H 20.802581756115373 71.59277558489131 38.327905539609844 H 0.0 **** 0.06
3413 H 22.192493570693372 71.51312165349182 39.43770139056522 H 0.0 **** 0.06
3414 H 20.693613412193287 70.63199471209305 39.82307926991069 H 0.0 **** 0.06
3415 H 20.727608662844204 72.4100133741365 39.90785770897867 H 0.0 **** 0.06
3416 C 45.37012172688112 86.52936172065097 36.61721592048776 C 0.0 **** -0.24
3417 H 45.3553125261389 86.78903715011936 37.67508992652105 H 0.0 **** 0.06
3418 H 44.34989130944875 86.51090949039957 36.23289107747332 H 0.0 **** 0.06
3419 H 45.823666325088496 85.54620371627286 36.49046506339179 H 0.0 **** 0.06
3420 H 45.95178406256656 87.27085622700727 36.06875078841891 H 0.0 **** 0.06
3421 C 38.8410146490657 10.98675058976417 9.93948916623566 C 0.0 **** -0.24
3422 H 39.43103121711488 11.461859446398876 10.723172870064499 H 0.0 **** 0.06
3423 H 39.49076305486216 10.364292001377123 9.32342463790247 H 0.0 **** 0.06
3424 H 38.37628530001203 11.752662357413584 9.319887813560154 H 0.0 **** 0.06
3425 H 38.06702034110734 10.36650921090444 10.392919031379478 H 0.0 **** 0.06
3426 C 42.87997717659812 94.60584464040463 112.31629184999332 C 0.0 **** -0.24
3427 H 42.42549058343843 94.90961109630203 113.25878373405362 H 0.0 **** 0.06
3428 H 42.15796775887276 94.03473101082488 111.73174517864402 H 0.0 **** 0.06
3429 H 43.754844360505274 93.98871579373429 112.5166101709591 H 0.0 **** 0.06
3430 H 43.18102397694935 95.49177897914808 111.75643620112322 H 0.0 **** 0.06
3431 C 75.05842084776239 22.2369064671673 37.925426684515735 C 0.0 **** -0.24
3432 H 75.88183409407503 21.524167362340307 37.968213465193244 H 0.0 **** 0.06
3433 H 75.12269918567193 22.810227400470552 37.00031881919079 H 0.0 **** 0.06
3434 H 75.11981845139573 22.913972162445788 38.77759598877607 H 0.0 **** 0.06
3435 H 74.10993754973259 21.70005148479197 37.95564797277038 H 0.0 **** 0.06
3436 C 79.2708885607602 63.083295870255824 90.45726379321394 C 0.0 **** -0.24
3437 H 78.54193758861882 62.2827237942256 90.58925640564667 H 0.0 **** 0.06
3438 H 79.27456795866823 63.72003331228484 91.34215646594896 H 0.0 **** 0.06
3439 H 79.00439240332068 63.67634898616183 89.58298073076759 H 0.0 **** 0.06
3440 H 80.26169930666316 62.65185065264774 90.31501676103505 H 0.0 **** 0.06
3441 C 103.28421357058173 74.67502568634606 102.85419222352178 C 0.0 **** -0.24
3442 H 103.83939225831469 75.55727476877044 102.53718709200209 H 0.0 **** 0.06
3443 H 102.27993880309253 74.70682564649204 102.43219452391187 H 0.0 **** 0.06
3444 H 103.22050899963074 74.6582885458804 103.94273059629333 H 0.0 **** 0.06
3445 H 103.79674821203741 73.77815932711098 102.50743718110277 H 0.0 **** 0.06
3446 C 15.443106510046306 118.65516809299365 103.90917538923492 C 0.0 **** -0.24
3447 H 16.398623054557408 119.07855337905329 103.59865454525169 H 0.0 **** 0.06
3448 H 15.588961031794469 117.62233765030226 104.22540293267565 H 0.0 **** 0.06
3449 H 14.743910977980992 118.68486282757559 103.07347450819833 H 0.0 **** 0.06
3450 H 15.041419962741543 119.23620103367415 104.73882876425711 H 0.0 **** 0.06
3451 C 58.01480589407359 13.051962098359752 93.82550868098542 C 0.0 **** -0.24
3452 H 58.52479190772456 13.276680805047889 94.762432325149 H 0.0 **** 0.06
3453 H 57.3086142505467 13.850163113626905 93.59660119297334 H 0.0 **** 0.06
3454 H 57.47708059056356 12.108268576482942 93.92374937364016 H 0.0 **** 0.06
3455 H 58.74715926364011 12.971050241843855 93.02333485548888 H 0.0 **** 0.06
3456 C 45.44210826833424 53.85543289268827 82.34558303065077 C 0.0 **** -0.24
3457 H 44.599254921264276 53.16751135376751 82.27829020571465 H 0.0 **** 0.06
3458 H 46.1400407779233 53.501240646523684 83.10485784733049 H 0.0 **** 0.06
3459 H 45.080590212005205 54.84688699816493 82.61836239174511 H 0.0 **** 0.06
3460 H 45.94813395378452 53.90494434815258 81.38153648652204 H 0.0 **** 0.06
3461 C 28.35703789807809 74.5516862066483 97.93147172998025 C 0.0 **** -0.24
3462 H 29.08766077948178 74.1608257095418 97.22287280320438 H 0.0 **** 0.06
3463 H 28.31300466171311 75.63770222543869 97.84603495984635 H 0.0 **** 0.06
3464 H 28.651570910662684 74.27857858928411 98.94439108545339 H 0.0 **** 0.06
3465 H 27.37644838239362 74.12924463536507 97.71183917779473 H 0.0 **** 0.06
3466 C 3.97490560992577 114.7822331407464 73.19202012059475 C 0.0 **** -0.24
3467 H 3.4743933740961666 115.40816273078104 73.93040941274097 H 0.0 **** 0.06
3468 H 3.2513362786014 114.09874480151119 72.74657394059474 H 0.0 **** 0.06
3469 H 4.7657892940121656 114.20956459434291 73.67669411143021 H 0.0 **** 0.06
3470 H 4.407397429384332 115.41175365986739 72.4144477036912 H 0.0 **** 0.06
3471 C 65.5060121247449 41.70789132506175 3.4614113911954263 C 0.0 **** -0.24
3472 H 65.51053013850498 42.56368382392341 4.135745775111815 H 0.0 **** 0.06
3473 H 65.59681773418109 40.78814674992084 4.040619880004087 H 0.0 **** 0.06
3474 H 66.34379337180144 41.78613036089417 2.768580705167551 H 0.0 **** 0.06
3475 H 64.57090950966654 41.692194204260886 2.9005550003312237 H 0.0 **** 0.06
3476 C 23.28818061241691 102.59817428911617 15.568724455390921 C 0.0 **** -0.24
3477 H 24.06754991743651 102.34124518815395 14.850567012677601 H 0.0 **** 0.06
3478 H 22.69416598404854 101.71127274053725 15.791022534400753 H 0.0 **** 0.06
3479 H 22.64505859106555 103.36968865292397 15.144813137270091 H 0.0 **** 0.06
3480 H 23.74660351478184 102.96896258626805 16.484722016317775 H 0.0 **** 0.06
3481 C 48.00418170533513 1.2436735261998706 45.71567223711244 C 0.0 **** -0.24
3482 H 46.96421241506908 1.389576073668536 45.424144477015204 H 0.0 **** 0.06
3483 H 48.41408925613561 2.1853315883156483 46.08160673065842 H 0.0 **** 0.06
3484 H 48.57970903654383 0.9056547310590162 44.85380755792407 H 0.0 **** 0.06
3485 H 48.057479185623905 0.4924645427146004 46.50443052533183 H 0.0 **** 0.06
3486 C 6.947583442929812 12.323799309035195 40.893751914549 C 0.0 **** -0.24
3487 H 5.962953578723329 12.435373241606584 41.34669160298154 H 0.0 **** 0.06
3488 H 6.885150046813237 11.630446558343237 40.055272254692 H 0.0 **** 0.06
3489 H 7.646347085272168 11.936290845253552 41.635087659493195 H 0.0 **** 0.06
3490 H 7.295219531175093 13.293904618108115 40.53889989479126 H 0.0 **** 0.06
3491 C 16.620266690700305 35.372199307649396 6.7651232651702315 C 0.0 **** -0.24
3492 H 17.513196366260303 35.880572933126814 6.403182791786321 H 0.0 **** 0.06
3493 H 16.898124027481856 34.66137347062539 7.543867192563241 H 0.0 **** 0.06
3494 H 16.145183845726365 34.84112366747996 5.940663412141603 H 0.0 **** 0.06
3495 H 15.92554661479602 36.10591198511827 7.1747790845423225 H 0.0 **** 0.06
3496 C 101.1369730418624 75.7567534367486 63.36638496720338 C 0.0 **** -0.24
3497 H 101.28695944494058 74.67748952275844 63.40317685507427 H 0.0 **** 0.06
3498 H 100.12612520753271 75.9705951220337 63.017722416146604 H 0.0 **** 0.06
3499 H 101.86003653394897 76.20073357733006 62.68150614568987 H 0.0 **** 0.06
3500 H 101.27436018465204 76.17740308844591 64.36268351231669 H 0.0 **** 0.06
3501 C 73.10664965297386 35.821382913985275 38.81899998530929 C 0.0 **** -0.24
3502 H 72.18552482739346 35.891517986187324 38.24092626490136 H 0.0 **** 0.06
3503 H 73.42103509915532 34.77876224818806 38.8760887425106 H 0.0 **** 0.06
3504 H 72.93397579672782 36.204516949804685 39.825214790052996 H 0.0 **** 0.06
3505 H 73.88531567538459 36.40966097156772 38.3343080852585 H 0.0 **** 0.06
3506 C 88.88915919198845 28.00702142658821 111.01343769360369 C 0.0 **** -0.24
3507 H 89.31582698150186 27.634967895003626 111.9451001412106 H 0.0 **** 0.06
3508 H 88.21247067359519 28.833379904999674 111.22847346478326 H 0.0 **** 0.06
3509 H 88.33873514688122 27.204724848933722 110.52076562026582 H 0.0 **** 0.06
3510 H 89.68956950683986 28.352929461849897 110.36022254778331 H 0.0 **** 0.06
3511 C 117.48241904438379 6.854256385574171 73.20560328262633 C 0.0 **** -0.24
3512 H 118.05097541194903 5.9917496069366685 73.55445982310852 H 0.0 **** 0.06
3513 H 116.42086227285893 6.609874213305268 73.19662407850007 H 0.0 **** 0.06
3514 H 117.80482577023349 7.116915665264731 72.19792270369152 H 0.0 **** 0.06
3515 H 117.65704122094166 7.697300630683358 73.87401230332108 H 0.0 **** 0.06
3516 C 52.154760833574926 104.65321884094948 92.87853880236392 C 0.0 **** -0.24
3517 H 53.07154041954425 104.16340810872259 92.55149029656184 H 0.0 **** 0.06
3518 H 52.24252450209339 104.92225881316591 93.93072610022867 H 0.0 **** 0.06
3519 H 51.312287049310015 103.97342631106028 92.74584273842413 H 0.0 **** 0.06
3520 H 51.992942541084176 105.55321327922701 92.28531289275426 H 0.0 **** 0.06
3521 C 82.86018507578655 87.54067591018693 57.66856976620221 C 0.0 **** -0.24
3522 H 83.20638479039374 86.59945517999427 58.09661120354221 H 0.0 **** 0.06
3523 H 82.1161371929297 87.33721761772458 56.89813960965341 H 0.0 **** 0.06
3524 H 83.70483423047702 88.07183368174714 57.227853927697 H 0.0 **** 0.06
3525 H 82.4147720766955 88.15376273771514 58.452615033366214 H 0.0 **** 0.06
3526 C 66.69110902183641 6.566294323083447 110.9303973856606 C 0.0 **** -0.24
3527 H 65.81064788743134 5.938676673041755 111.07284905450655 H 0.0 **** 0.06
3528 H 66.71628546720919 7.336445158294119 111.70195815495794 H 0.0 **** 0.06
3529 H 66.64699131954805 7.037048195313208 109.94810946029386 H 0.0 **** 0.06
3530 H 67.58958372232777 5.9531511700109085 111.00043891476324 H 0.0 **** 0.06
3531 C 44.112884502698506 34.82507816374684 111.0374526428171 C 0.0 **** -0.24
3532 H 43.88181912591398 34.917614088700354 112.09801473334744 H 0.0 **** 0.06
3533 H 44.76548734376388 33.96495504411248 110.8820371428173 H 0.0 **** 0.06
3534 H 44.61612314942454 35.72917537628603 110.69470751222025 H 0.0 **** 0.06
3535 H 43.18961272371064 34.686654457461835 110.47532525542567 H 0.0 **** 0.06
3536 C 110.6754388906611 71.33821264586638 35.555350912553195 C 0.0 **** -0.24
3537 H 109.96764614221962 70.53669264571408 35.76832809574944 H 0.0 **** 0.06
3538 H 110.26139433004843 72.28790825276238 35.895867508611275 H 0.0 **** 0.06
3539 H 110.85929482012986 71.38413836199808 34.482307617922345 H 0.0 **** 0.06
3540 H 111.61200694703068 71.14191841150947 36.076948419387236 H 0.0 **** 0.06
3541 C 4.111090885840753 121.91324399027138 11.459099499929494 C 0.0 **** -0.24
3542 H 4.972047817240963 121.5527094121078 12.021689127563377 H 0.0 **** 0.06
3543 H 3.5701908096018116 122.64854513826374 12.054158669888807 H 0.0 **** 0.06
3544 H 3.4525378841061496 121.07598232558374 11.2276519096647 H 0.0 **** 0.06
3545 H 4.451408343404978 122.37449113203631 10.531837267942592 H 0.0 **** 0.06
3546 C 73.95701531708619 43.26445245453854 42.174953883427804 C 0.0 **** -0.24
3547 H 74.29767555804409 42.75942615061027 41.271014633522725 H 0.0 **** 0.06
3548 H 73.19966804730916 42.65468683877597 42.6684578674697 H 0.0 **** 0.06
3549 H 73.52916954844085 44.23211356505524 41.909781876040455 H 0.0 **** 0.06
3550 H 74.80060674878536 43.41223318333667 42.84778772271639 H 0.0 **** 0.06
3551 C 31.590761312805057 97.81538664971191 11.070163053947486 C 0.0 **** -0.24
3552 H 30.693554318653923 97.21774507454654 10.90743531781153 H 0.0 **** 0.06
3553 H 32.39546507059754 97.1708414414806 11.42620035188234 H 0.0 **** 0.06
3554 H 31.38476805270136 98.58454543585873 11.81319774918266 H 0.0 **** 0.06
3555 H 31.888399503191067 98.28559278505543 10.132678199399763 H 0.0 **** 0.06
3556 C 80.33121077862145 110.57983078999663 45.35026366854629 C 0.0 **** -0.24
3557 H 80.7703973907652 111.52508292167172 45.03147745285304 H 0.0 **** 0.06
3558 H 80.25330079109543 109.90873247448786 44.49382726378673 H 0.0 **** 0.06
3559 H 79.33899421733665 110.76074601714501 45.76177553921906 H 0.0 **** 0.06
3560 H 80.96394232811375 110.12462514989733 46.11264334991557 H 0.0 **** 0.06
3561 C 56.95300228683291 96.75197062205689 114.09348566328475 C 0.0 **** -0.24
3562 H 57.6819983310472 97.55557144244472 113.98496070137513 H 0.0 **** 0.06
3563 H 56.79709783802443 96.54314560775674 115.15197376287857 H 0.0 **** 0.06
3564 H 57.324596754690305 95.85617128442925 113.59651061860026 H 0.0 **** 0.06
3565 H 56.0090395380557 97.0534672312391 113.63999451028697 H 0.0 **** 0.06
3566 C 16.31196848903242 41.6101909388789 55.309038556385396 C 0.0 **** -0.24
3567 H 16.966546067207098 41.47462397185083 54.44754858457744 H 0.0 **** 0.06
3568 H 15.810182357107145 40.66813998334706 55.53509812670607 H 0.0 **** 0.06
3569 H 15.567770293690675 42.37389332352748 55.08282438619296 H 0.0 **** 0.06
3570 H 16.904134299070044 41.92267974829383 56.16884231132935 H 0.0 **** 0.06
3571 C 59.710552083789516 19.21022076907281 17.12295792472118 C 0.0 **** -0.24
3572 H 59.2450497607772 18.242443022713577 16.936998421213072 H 0.0 **** 0.06
3573 H 59.7839078355077 19.76460411391627 16.18724312849092 H 0.0 **** 0.06
3574 H 60.70827738630667 19.06002385773592 17.536358799053914 H 0.0 **** 0.06
3575 H 59.10436657763163 19.774052745383507 17.83312188653996 H 0.0 **** 0.06
3576 C 54.886103147061704 66.26055629244112 45.546982991646274 C 0.0 **** -0.24
3577 H 55.80922677386553 65.7063548728859 45.37977163373921 H 0.0 **** 0.06
3578 H 55.02575347663267 66.95843498750816 46.37268163726873 H 0.0 **** 0.06
3579 H 54.083202811410615 65.5647349357775 45.79024378504198 H 0.0 **** 0.06
3580 H 54.62571077035511 66.81259873042654 44.64330597726874 H 0.0 **** 0.06
3581 C 89.799700210803 119.78385599615794 63.4147947843023 C 0.0 **** -0.24
3582 H 89.12068960896687 118.94798232850465 63.58589415379754 H 0.0 **** 0.06
3583 H 90.67921213796197 119.67265753514663 64.05036138090054 H 0.0 **** 0.06
3584 H 89.2928490842713 120.71806251628149 63.65403770313071 H 0.0 **** 0.06
3585 H 90.10667954239787 119.793038783209 62.368682683630794 H 0.0 **** 0.06
3586 C 45.53965962509359 46.48240711670735 68.08578367999175 C 0.0 **** -0.24
3587 H 45.732292664533695 45.41581482716731 67.97204492372396 H 0.0 **** 0.06
3588 H 44.66139930716057 46.62778324539056 68.71532300587253 H 0.0 **** 0.06
3589 H 45.36267070215277 46.925560008858554 67.1053758009144 H 0.0 **** 0.06
3590 H 46.40327673299172 46.959522525170485 68.54934222151246 H 0.0 **** 0.06
3591 C 18.99139034906642 119.97307154788993 61.216461510510555 C 0.0 **** -0.24
3592 H 18.549260060642496 120.63713962444174 60.47277703005858 H 0.0 **** 0.06
3593 H 18.706626843257908 120.30522579178981 62.21441110322331 H 0.0 **** 0.06
3594 H 20.077387543716327 119.99487935049251 61.12132115404813 H 0.0 **** 0.06
3595 H 18.6324959278856 118.95662678844425 61.05479835937848 H 0.0 **** 0.06
3596 C 79.8921158647596 83.4509481227474 119.44664189679614 C 0.0 **** -0.24
3597 H 78.95478896446264 83.87082169827374 119.08104564980218 H 0.0 **** 0.06
3598 H 79.71686284395753 82.44270083027013 119.82185370721547 H 0.0 **** 0.06
3599 H 80.28147619273318 84.07650271293264 120.25004723302223 H 0.0 **** 0.06
3600 H 80.61618565764172 83.4149622399091 118.63226107766997 H 0.0 **** 0.06
3601 C 28.29190807643039 91.3923267946542 78.77042763544324 C 0.0 **** -0.24
3602 H 27.451961461106123 90.74653490325 78.51505021415511 H 0.0 **** 0.06
3603 H 29.21448871482994 90.81135584869622 78.75911860737591 H 0.0 **** 0.06
3604 H 28.13833993579601 91.81200817061415 79.76489006793128 H 0.0 **** 0.06
3605 H 28.362542304708597 92.20111011699555 78.04253374238766 H 0.0 **** 0.06
3606 C 4.646668890805017 63.05767431322263 85.34029922595647 C 0.0 **** -0.24
3607 H 3.727246794383518 63.387580104931736 84.85602209502505 H 0.0 **** 0.06
3608 H 4.574068890501962 63.23237666321392 86.41483149001004 H 0.0 **** 0.06
3609 H 5.490058338569838 63.619172173534686 84.93781997469426 H 0.0 **** 0.06
3610 H 4.7945633842057305 61.994756966332524 85.15403606630917 H 0.0 **** 0.06
3611 C 95.6148683111524 89.4487764918992 20.815434128578033 C 0.0 **** -0.24
3612 H 95.22858210074494 89.7496747768308 19.84236720787669 H 0.0 **** 0.06
3613 H 96.67349477427902 89.20619881590986 20.727025023137458 H 0.0 **** 0.06
3614 H 95.0693588790275 88.57314389571022 21.167708399851904 H 0.0 **** 0.06
3615 H 95.48689265595391 90.26574712426392 21.52539281270208 H 0.0 **** 0.06
3616 C 75.89130039186412 117.68827532458285 98.68908056909402 C 0.0 **** -0.24
3617 H 75.85899270433279 118.74757583820151 98.9453222602749 H 0.0 **** 0.06
3618 H 76.68011633289586 117.20031934242199 99.26119985272612 H 0.0 **** 0.06
3619 H 76.09423551753119 117.5795265132786 97.62361017186413 H 0.0 **** 0.06
3620 H 74.93213577304783 117.22851031908978 98.92523613190872 H 0.0 **** 0.06
3621 C 36.2717399126425 45.67160481400447 34.85425716021166 C 0.0 **** -0.24
3622 H 36.15466119451729 46.71890962227664 34.572476315265675 H 0.0 **** 0.06
3623 H 37.255038302171585 45.320668571233114 34.54022023511939 H 0.0 **** 0.06
3624 H 35.499668995432046 45.07551766989573 34.368344912622746 H 0.0 **** 0.06
3625 H 36.17867204897186 45.57429229711212 35.93612073821265 H 0.0 **** 0.06
3626 C 77.87454004009584 70.34780457380364 44.4003930990221 C 0.0 **** -0.24
3627 H 77.31203525880113 70.11321926954847 45.30431580495872 H 0.0 **** 0.06
3628 H 78.00758963822852 71.42734519083419 44.32482174371148 H 0.0 **** 0.06
3629 H 77.32728532762695 69.98718467915995 43.52843851473597 H 0.0 **** 0.06
3630 H 78.8496498942169 69.86285809009104 44.44373819897618 H 0.0 **** 0.06
3631 C 113.11923701181709 86.60316654387037 64.33323124230571 C 0.0 **** -0.24
3632 H 112.23918306778458 86.58155389601308 63.68977485060316 H 0.0 **** 0.06
3633 H 112.81826820347442 86.84951547906473 65.35153577134969 H 0.0 **** 0.06
3634 H 113.81733534820694 87.35792746226264 63.96805878528755 H 0.0 **** 0.06
3635 H 113.60193873183522 85.62583377901328 64.32174834104501 H 0.0 **** 0.06
3636 C 28.012513275542773 48.63421468495497 25.068328712953544 C 0.0 **** -0.24
3637 H 27.015203702217832 49.05115558422676 25.205824130634554 H 0.0 **** 0.06
3638 H 27.937189182012503 47.558906386447376 24.90696741813653 H 0.0 **** 0.06
3639 H 28.6127127302164 48.82775509092525 25.95693087980947 H 0.0 **** 0.06
3640 H 28.48346900766066 49.09994932252371 24.202597183981013 H 0.0 **** 0.06
3641 C 40.66894290111648 12.696542065866254 38.39540975057143 C 0.0 **** -0.24
3642 H 39.602231122832634 12.895557560147722 38.49748782374293 H 0.0 **** 0.06
3643 H 40.82694039246314 11.96511233558698 37.60201354096628 H 0.0 **** 0.06
3644 H 41.05684784250453 12.30388554731394 39.335420257579116 H 0.0 **** 0.06
3645 H 41.18872266715484 13.621273694093816 38.14580904597639 H 0.0 **** 0.06
3646 C 113.88374000686252 117.59634044690984 23.56033888364709 C 0.0 **** -0.24
3647 H 114.1748407631438 117.59302893837884 24.610811406160906 H 0.0 **** 0.06
3648 H 113.8086330318715 116.56932864139395 23.202287420607533 H 0.0 **** 0.06
3649 H 114.63375613821208 118.13141730063835 22.97806345067398 H 0.0 **** 0.06
3650 H 112.91895136787947 118.09129688436887 23.452296756937223 H 0.0 **** 0.06
3651 C 21.270019566177083 78.95953864142524 89.54927261890492 C 0.0 **** -0.24
3652 H 21.919183892082287 78.14504544191706 89.86779347065828 H 0.0 **** 0.06
3653 H 20.267822695294715 78.5729919072329 89.35779594735303 H 0.0 **** 0.06
3654 H 21.66782176148648 79.40625221051408 88.63764354286297 H 0.0 **** 0.06
3655 H 21.223801164138685 79.71544152907919 90.33450247358434 H 0.0 **** 0.06
3656 C 34.35373321874103 102.34456643347818 117.72640748002479 C 0.0 **** -0.24
3657 H 34.66405207373444 102.19447624432931 118.75992923145353 H 0.0 **** 0.06
3658 H 35.164219651894186 102.05396791416601 117.05840198485728 H 0.0 **** 0.06
3659 H 34.11158707934794 103.39584863655278 117.56851782775055 H 0.0 **** 0.06
3660 H 33.47440187917057 101.73352199431113 117.51936812741297 H 0.0 **** 0.06
3661 C 118.9576404911302 59.81294917220709 111.67070595302278 C 0.0 **** -0.24
3662 H 118.9491621266254 58.940375155657584 111.01852901448314 H 0.0 **** 0.06
3663 H 118.70600372067486 59.5099322224552 112.68684313335484 H 0.0 **** 0.06
3664 H 118.22498141101474 60.53846405465928 111.31591163376252 H 0.0 **** 0.06
3665 H 119.95037516036402 60.26460679563079 111.65995969919189 H 0.0 **** 0.06
3666 C 25.029793576253645 90.552747687909 6.011264699269134 C 0.0 **** -0.24
3667 H 25.493329377601583 91.53869632531197 5.968334367392032 H 0.0 **** 0.06
3668 H 25.713025507227677 89.85015404428009 6.487834106046336 H 0.0 **** 0.06
3669 H 24.8063711780937 90.21309037312676 4.9991606753799545 H 0.0 **** 0.06
3670 H 24.106096208169944 90.61103588936098 6.586740823306457 H 0.0 **** 0.06
3671 C 16.22885225173104 67.36805981587926 32.825388687903114 C 0.0 **** -0.24
3672 H 16.92210760572374 67.95423323216951 33.43050107015296 H 0.0 **** 0.06
3673 H 16.487825458243265 66.31123913597975 32.89903057797295 H 0.0 **** 0.06
3674 H 16.295636865691108 67.68788776233654 31.785508392363454 H 0.0 **** 0.06
3675 H 15.212725380513007 67.5196543514455 33.18917350419082 H 0.0 **** 0.06
3676 C 54.74019668452797 40.005898766574944 71.22426543949206 C 0.0 **** -0.24
3677 H 55.113263913664525 40.30046382869213 72.20465125144389 H 0.0 **** 0.06
3678 H 54.992036522193814 38.961666823664146 71.03758788992218 H 0.0 **** 0.06
3679 H 55.19819372212024 40.63313964932618 70.45831908637442 H 0.0 **** 0.06
3680 H 53.65746358057234 40.13035347724525 71.19514139297371 H 0.0 **** 0.06
3681 C 76.08469847267187 99.74576743202599 7.381817123737623 C 0.0 **** -0.24
3682 H 76.93986375792292 100.40040862055739 7.546936244412034 H 0.0 **** 0.06
3683 H 75.27261462014923 100.03445581326261 8.048145790745693 H 0.0 **** 0.06
3684 H 76.37257882616666 98.71419904865411 7.58402169856388 H 0.0 **** 0.06
3685 H 75.75516139750025 99.83382843612594 6.346772351500881 H 0.0 **** 0.06
3686 C 22.95242611633222 10.846655537180936 53.57561063465021 C 0.0 **** -0.24
3687 H 22.31401377003516 10.038320663402857 53.929959967982434 H 0.0 **** 0.06
3688 H 23.920871064479627 10.44186695998377 53.28162811341948 H 0.0 **** 0.06
3689 H 23.08961210293313 11.576993443154151 54.372225099278815 H 0.0 **** 0.06
3690 H 22.484447777026787 11.328464890606199 52.7167665356102 H 0.0 **** 0.06
3691 C 45.411863657260426 12.917405837254918 22.969302641319757 C 0.0 **** -0.24
3692 H 44.46374684207058 12.381715849559217 23.016077309135653 H 0.0 **** 0.06
3693 H 45.26622723845924 13.868916139682746 22.458047030773542 H 0.0 **** 0.06
3694 H 46.14109836658514 12.318806991977574 22.424097864647763 H 0.0 **** 0.06
3695 H 45.77572576265996 13.09964662679209 23.98049836580239 H 0.0 **** 0.06
3696 C 75.2629140498677 79.68774668756956 49.26026586771167 C 0.0 **** -0.24
3697 H 76.16589705985186 79.93940649593773 48.70416232893203 H 0.0 **** 0.06
3698 H 75.50729492863718 79.56858748855839 50.31583595212243 H 0.0 **** 0.06
3699 H 74.84667234597202 78.75650463268624 48.87562288271957 H 0.0 **** 0.06
3700 H 74.53066836222033 80.48710967611515 49.143611541093776 H 0.0 **** 0.06
3701 C 47.22537256479558 65.05452187923433 40.691229926490394 C 0.0 **** -0.24
3702 H 47.768920397348666 65.40054028337227 41.570857229496454 H 0.0 **** 0.06
3703 H 46.265499003175194 64.6398089518677 40.997138404814734 H 0.0 **** 0.06
3704 H 47.80923014708483 64.28603720118946 40.1834663811276 H 0.0 **** 0.06
3705 H 47.0607297418274 65.89231303774454 40.01398638088196 H 0.0 **** 0.06
3706 C 86.67624992513427 108.20394598599316 38.077696788139775 C 0.0 **** -0.24
3707 H 87.65234896269592 108.60954683227098 37.81164839159672 H 0.0 **** 0.06
3708 H 86.16056253586692 108.90393862095115 38.73596650498425 H 0.0 **** 0.06
3709 H 86.8066725091908 107.25062008680132 38.591207146608895 H 0.0 **** 0.06
3710 H 86.08690399433218 108.05245933545382 37.17344002726466 H 0.0 **** 0.06
3711 C 11.220755780260475 23.236548023474363 32.09253874047266 C 0.0 **** -0.24
3712 H 10.788100365103077 22.25759305266319 31.88410737233525 H 0.0 **** 0.06
3713 H 11.211829933076814 23.838221132835002 31.18286736532417 H 0.0 **** 0.06
3714 H 12.246857761774635 23.114708582583788 32.43755312982276 H 0.0 **** 0.06
3715 H 10.6344035887317 23.735574334226023 32.864347655499984 H 0.0 **** 0.06
3716 C 108.9788547280593 107.3811754788951 93.91542652252338 C 0.0 **** -0.24
3717 H 108.65166761378399 106.34234227089092 93.88587603228208 H 0.0 **** 0.06
3718 H 108.43438217260024 107.91071132607499 94.69754453017302 H 0.0 **** 0.06
3719 H 108.78161469672969 107.85191736304392 92.95273990104457 H 0.0 **** 0.06
3720 H 110.04757904197564 107.41909597901622 94.12679708791896 H 0.0 **** 0.06
3721 C 77.48401729595409 61.973276093013936 2.9082530316007613 C 0.0 **** -0.24
3722 H 77.90339623130714 62.88032733748469 2.473581376877135 H 0.0 **** 0.06
3723 H 77.03497910341312 62.20669078672515 3.8733630673246164 H 0.0 **** 0.06
3724 H 78.2760461873809 61.23586132861158 3.04440704156967 H 0.0 **** 0.06
3725 H 76.72310772662175 61.56855105247493 2.240627821908383 H 0.0 **** 0.06
3726 C 67.90772137626391 25.748711674375215 65.80826371241159 C 0.0 **** -0.24
3727 H 67.35770799820168 24.809466433078114 65.86604594175918 H 0.0 **** 0.06
3728 H 67.42531449009533 26.49199394756033 66.44276758925312 H 0.0 **** 0.06
3729 H 67.91766857671746 26.100355999683018 64.77738187633878 H 0.0 **** 0.06
3730 H 68.93162683555283 25.591041109489254 66.14827073289752 H 0.0 **** 0.06
3731 C 121.94824785151204 57.72006684297286 115.69489538681837 C 0.0 **** -0.24
3732 H 121.12937722966666 57.347890179401965 116.31203610534224 H 0.0 **** 0.06
3733 H 122.80437021648788 57.95113453752253 116.32915824640492 H 0.0 **** 0.06
3734 H 121.6279407087463 58.62270147845796 115.17381072839197 H 0.0 **** 0.06
3735 H 122.2283297934752 56.95980766668699 114.96646202577232 H 0.0 **** 0.06
3736 C 11.327217382287458 66.33690330043615 7.171764877901865 C 0.0 **** -0.24
3737 H 10.44449772790222 66.31858860525764 7.811352823877911 H 0.0 **** 0.06
3738 H 11.756487094524786 67.33923899571099 7.1741824630237545 H 0.0 **** 0.06
3739 H 11.045315531028852 66.06449070239552 6.155348733722491 H 0.0 **** 0.06
3740 H 12.062997261255841 65.62510429329913 7.548361970063269 H 0.0 **** 0.06
3741 C 3.8496719708248346 21.489150457686492 84.07535685306613 C 0.0 **** -0.24
3742 H 3.6410655859976693 20.891074087359698 84.96232029662926 H 0.0 **** 0.06
3743 H 4.923193255145058 21.49036380821724 83.88344600263963 H 0.0 **** 0.06
3744 H 3.5087922483543927 22.510971874922348 84.23778239647729 H 0.0 **** 0.06
3745 H 3.3279056086293917 21.0635743581808 83.21856519842856 H 0.0 **** 0.06
3746 C 110.23284208334911 121.35615284547006 105.16969854574623 C 0.0 **** -0.24
3747 H 110.59811367459517 122.31998182307973 104.81400972065649 H 0.0 **** 0.06
3748 H 109.35273763097567 121.06749688792988 104.59495423067423 H 0.0 **** 0.06
3749 H 109.97022193927441 121.4346780408055 106.22450590415684 H 0.0 **** 0.06
3750 H 111.01263485875606 120.60471046575199 105.04376310862907 H 0.0 **** 0.06
3751 C 83.11658335913444 48.27005983286087 21.26700662874407 C 0.0 **** -0.24
3752 H 83.07128857020078 48.25403216682195 22.355976154725795 H 0.0 **** 0.06
3753 H 82.64679609193547 49.181904663243266 20.897414834249815 H 0.0 **** 0.06
3754 H 82.5903004376953 47.40261740856672 20.8694767298619 H 0.0 **** 0.06
3755 H 84.15790183133225 48.24251560665185 20.94723445563045 H 0.0 **** 0.06
3756 C 9.412796507023302 42.62254893108906 21.967910631070396 C 0.0 **** -0.24
3757 H 9.224692796628148 43.059440737541365 20.986465905164295 H 0.0 **** 0.06
3758 H 10.48813898525836 42.54203814218272 22.127875361073166 H 0.0 **** 0.06
3759 H 8.962009374444307 41.6318406188272 22.016025809368614 H 0.0 **** 0.06
3760 H 8.976280197196445 43.258796061662395 22.73736250795679 H 0.0 **** 0.06
3761 C 9.129030903182084 68.19710537440096 40.67806199407079 C 0.0 **** -0.24
3762 H 8.778451119726924 67.78684526034957 39.73159671583511 H 0.0 **** 0.06
3763 H 10.112797724566605 68.64475783111013 40.53857284423117 H 0.0 **** 0.06
3764 H 9.195201823886038 67.39856246247035 41.41732431662285 H 0.0 **** 0.06
3765 H 8.429741756364976 68.95726291957578 41.02699229128615 H 0.0 **** 0.06
3766 C 12.85727115878666 19.53461110981044 66.4382794601847 C 0.0 **** -0.24
3767 H 12.36039230531614 18.876851543699104 67.15141821759605 H 0.0 **** 0.06
3768 H 12.112109547151789 19.992046782710474 65.78582944385352 H 0.0 **** 0.06
3769 H 13.559500260022219 18.955350898587938 65.83881384649081 H 0.0 **** 0.06
3770 H 13.395973772762972 20.313946236430013 66.97789823246416 H 0.0 **** 0.06
3771 C 86.7062822864379 81.01520381470178 49.39467935762954 C 0.0 **** -0.24
3772 H 87.04846569070585 81.23399719603685 50.40636514066938 H 0.0 **** 0.06
3773 H 87.50280035337008 80.5189887541166 48.84043239251963 H 0.0 **** 0.06
3774 H 86.43781198989649 81.94484432818837 48.89247186273231 H 0.0 **** 0.06
3775 H 85.83403673591997 80.36276449176162 49.44039352544414 H 0.0 **** 0.06
3776 C 3.67044082146581 58.448468604532565 114.76282900721526 C 0.0 **** -0.24
3777 H 3.073576354478112 57.835791414812974 115.43961012743101 H 0.0 **** 0.06
3778 H 3.962463873703472 57.853857237306045 113.89698086116394 H 0.0 **** 0.06
3779 H 4.562600206430867 58.797867460287954 115.28208248623156 H 0.0 **** 0.06
3780 H 3.082175115187338 59.30491835851195 114.43529376225099 H 0.0 **** 0.06
3781 C 120.54410012142239 97.4527365697688 49.0993725911722 C 0.0 **** -0.24
3782 H 119.79122008336907 96.67405673051422 48.97442250814042 H 0.0 **** 0.06
3783 H 121.4601753951643 97.15678417286199 48.58733113883497 H 0.0 **** 0.06
3784 H 120.74924852536077 97.5915186821656 50.1609967256409 H 0.0 **** 0.06
3785 H 120.17511923262236 98.38628870421107 48.674180088025906 H 0.0 **** 0.06
3786 C 110.98932527424836 37.01414545988169 35.57216887954229 C 0.0 **** -0.24
3787 H 111.82352766276068 37.017140434401455 34.870975250864944 H 0.0 **** 0.06
3788 H 111.24142905522311 36.39566644880716 36.43385707844806 H 0.0 **** 0.06
3789 H 110.10321455776042 36.61152615038502 35.080997174888466 H 0.0 **** 0.06
3790 H 110.78998646419927 38.03374874910082 35.90297446760914 H 0.0 **** 0.06
3791 C 35.68107615642245 39.05985217126647 14.727039974839727 C 0.0 **** -0.24
3792 H 36.26178969104146 39.63891217864057 15.445407189318246 H 0.0 **** 0.06
3793 H 35.65255396111894 39.58804766824832 13.772979579454272 H 0.0 **** 0.06
3794 H 34.664961502613124 38.931430923121326 15.101120404437324 H 0.0 **** 0.06
3795 H 36.14432864765692 38.08313393944539 14.588383068495602 H 0.0 **** 0.06
3796 C 114.96065594849557 56.876867169859565 84.8648807205642 C 0.0 **** -0.24
3797 H 114.39384950675864 55.959402138033965 84.7045044843133 H 0.0 **** 0.06
3798 H 115.84880114920794 56.65646819802561 85.45761806449579 H 0.0 **** 0.06
3799 H 114.33964950923081 57.598862023252195 85.39584739076241 H 0.0 **** 0.06
3800 H 115.25969604139256 57.29231042146188 83.90274661588901 H 0.0 **** 0.06
3801 C 91.47146367895331 80.67884819388982 12.94164901691737 C 0.0 **** -0.24
3802 H 91.73554493631042 81.67065953317407 13.307818995036815 H 0.0 **** 0.06
3803 H 91.54668836890448 79.95863276659088 13.757604424715126 H 0.0 **** 0.06
3804 H 92.15482064564557 80.394310144477 12.141106374170924 H 0.0 **** 0.06
3805 H 90.45096326878794 80.69157380389163 12.560592554421167 H 0.0 **** 0.06
3806 C 15.409739210605494 96.77902092248857 5.981672101740855 C 0.0 **** -0.24
3807 H 16.043746151250843 97.6444905480324 5.791302440910982 H 0.0 **** 0.06
3808 H 15.33985305653681 96.17496856344323 5.07697280915275 H 0.0 **** 0.06
3809 H 14.414855191434867 97.11342811307432 6.2738667064948 H 0.0 **** 0.06
3810 H 15.842442306767907 96.18178818342614 6.784042461137119 H 0.0 **** 0.06
3811 C 21.71261941472494 22.745237730966238 10.366334462380479 C 0.0 **** -0.24
3812 H 22.6029672550182 22.134429109012963 10.212966447532523 H 0.0 **** 0.06
3813 H 21.9600767434286 23.59050816044052 11.008636501865283 H 0.0 **** 0.06
3814 H 20.936852644419247 22.14310529020092 10.84039313704318 H 0.0 **** 0.06
3815 H 21.35280755302375 23.110545402942826 9.404910096812046 H 0.0 **** 0.06
3816 C 63.51224848822549 54.41952899904118 17.65321433834572 C 0.0 **** -0.24
3817 H 63.733258671858586 55.41697897035144 17.272405699285514 H 0.0 **** 0.06
3818 H 63.2142588934775 54.48840272069671 18.69892686230628 H 0.0 **** 0.06
3819 H 64.40105566573416 53.79392674850922 17.568734895840407 H 0.0 **** 0.06
3820 H 62.70264461117015 53.980374645925934 17.071525361158365 H 0.0 **** 0.06
3821 C 35.98891262959041 63.233097150229575 56.41602966019576 C 0.0 **** -0.24
3822 H 35.067388963558656 63.79228585623219 56.25592587716292 H 0.0 **** 0.06
3823 H 36.427773125866004 62.97158081192277 55.452440600411364 H 0.0 **** 0.06
3824 H 35.76801834331593 62.32289996660604 56.97359484202403 H 0.0 **** 0.06
3825 H 36.69170844180196 63.84443379184234 56.982066481682295 H 0.0 **** 0.06
3826 C 70.60635267629394 76.81748646683593 77.18278292331675 C 0.0 **** -0.24
3827 H 69.59463167776491 76.54841767268829 77.48743152817161 H 0.0 **** 0.06
3828 H 71.32584850293475 76.25012303988143 77.77321804350186 H 0.0 **** 0.06
3829 H 70.76298428852195 77.8843104766741 77.34580519659721 H 0.0 **** 0.06
3830 H 70.74038910008801 76.58818805601817 76.12585171473663 H 0.0 **** 0.06
3831 C 110.15933744485739 51.310719279948856 88.48338094109477 C 0.0 **** -0.24
3832 H 109.83743789435391 50.74865601508077 87.60628246564733 H 0.0 **** 0.06
3833 H 110.0665620462218 50.68322912464819 89.3707596953949 H 0.0 **** 0.06
3834 H 109.53361635849149 52.195296266741565 88.59637975342025 H 0.0 **** 0.06
3835 H 111.19886716014855 51.61371368661614 88.35895233115275 H 0.0 **** 0.06
3836 C 28.722899849912352 7.86041743626906 82.95841597620267 C 0.0 **** -0.24
3837 H 29.192491774053167 8.592016482529331 82.30174076978739 H 0.0 **** 0.06
3838 H 27.695803102434354 8.163219182951153 83.16359525574029 H 0.0 **** 0.06
3839 H 29.278236369647573 7.803172248390169 83.89462774235966 H 0.0 **** 0.06
3840 H 28.724305349599888 6.884248663615466 82.47436677273782 H 0.0 **** 0.06
3841 C 42.076798035569254 60.736636193247335 72.24468200847835 C 0.0 **** -0.24
3842 H 42.69922587420044 61.63019356531575 72.20242195291385 H 0.0 **** 0.06
3843 H 41.808254453478696 60.43313694682857 71.23278147738358 H 0.0 **** 0.06
3844 H 41.17093737916227 60.95132480075361 72.81218569773418 H 0.0 **** 0.06
3845 H 42.62798512735921 59.932503054504394 72.73136236477347 H 0.0 **** 0.06
3846 C 18.35100360280495 51.90083429080707 95.0249890756738 C 0.0 **** -0.24
3847 H 17.979777895445864 51.8752481162427 93.99944138377245 H 0.0 **** 0.06
3848 H 18.145422098497704 50.946492923627844 95.50869752920812 H 0.0 **** 0.06
3849 H 17.852327561909078 52.70135486565621 95.5708389717226 H 0.0 **** 0.06
3850 H 19.425986962884508 52.080328932855096 95.01727123579417 H 0.0 **** 0.06
3851 C 121.24576587891511 50.58114681147569 109.48540489047326 C 0.0 **** -0.24
3852 H 120.22796707634826 50.89027131922202 109.724797461583 H 0.0 **** 0.06
3853 H 121.68451344357237 50.078447185200076 110.34748888038479 H 0.0 **** 0.06
3854 H 121.84149484201976 51.4585177832609 109.23309689953226 H 0.0 **** 0.06
3855 H 121.22754729161088 49.89920092579672 108.63578499135264 H 0.0 **** 0.06
3856 C 3.3008694515216632 19.352034863918288 89.0153358634939 C 0.0 **** -0.24
3857 H 3.23088526947339 19.629735776570833 87.96321961779643 H 0.0 **** 0.06
3858 H 3.004738127189512 20.19809590820475 89.63520605773826 H 0.0 **** 0.06
3859 H 4.327528145739905 19.070819385508646 89.24815739523589 H 0.0 **** 0.06
3860 H 2.639535193481322 18.507843456640007 89.21149400958544 H 0.0 **** 0.06
3861 C 7.4079659224168495 1.4624212770801943 61.419128949155606 C 0.0 **** -0.24
3862 H 7.302148854916311 2.511845807613266 61.693214710861156 H 0.0 **** 0.06
3863 H 6.419742666021534 1.0189941625579237 61.29315524841405 H 0.0 **** 0.06
3864 H 7.946095303665743 0.9343279819293357 62.20596777684301 H 0.0 **** 0.06
3865 H 7.963000522162474 1.3856099166182734 60.48398310113225 H 0.0 **** 0.06
3866 C 42.96305349613405 118.92824352085975 77.8404643973488 C 0.0 **** -0.24
3867 H 42.367168019958655 118.56639721165641 77.00244596843413 H 0.0 **** 0.06
3868 H 43.79016389161562 119.53073279435138 77.46472617963803 H 0.0 **** 0.06
3869 H 43.35531152432483 118.07878906375377 78.39968250969645 H 0.0 **** 0.06
3870 H 42.33858166219569 119.53713100142969 78.4948749272126 H 0.0 **** 0.06
3871 C 27.776045921343183 79.67439486347732 26.257649718727606 C 0.0 **** -0.24
3872 H 27.114181799260137 78.83892664681602 26.030952042550524 H 0.0 **** 0.06
3873 H 28.27633387683761 79.99889272385653 25.343982188483693 H 0.0 **** 0.06
3874 H 28.521128408374864 79.35957238247968 26.988265226189753 H 0.0 **** 0.06
3875 H 27.19249330551935 80.4998812185076 26.664587946422472 H 0.0 **** 0.06
3876 C 102.63800083125264 54.83558622328309 119.21256634520402 C 0.0 **** -0.24
3877 H 102.7878268811588 55.78413032432047 119.72812465004743 H 0.0 **** 0.06
3878 H 103.14946008839308 54.860926837388774 118.25039463216162 H 0.0 **** 0.06
3879 H 101.57209164837917 54.6729062884927 119.05340298923541 H 0.0 **** 0.06
3880 H 103.04304829108102 54.02572952493057 119.81840109936375 H 0.0 **** 0.06
3881 C 55.60797621698155 13.920031453430468 105.35288287122455 C 0.0 **** -0.24
3882 H 55.052829887724805 14.472949743237564 106.1110814496009 H 0.0 **** 0.06
3883 H 55.91010196400661 12.952553134112648 105.7569595981281 H 0.0 **** 0.06
3884 H 56.49354554444499 14.486552241272847 105.06631656544997 H 0.0 **** 0.06
3885 H 54.97514978807876 13.767749414609142 104.47936930993035 H 0.0 **** 0.06
3886 C 91.71934741512646 81.51533942092613 104.15901786370668 C 0.0 **** -0.24
3887 H 91.27191508827968 82.48934216640339 104.3558910915981 H 0.0 **** 0.06
3888 H 91.31524084866703 81.10999914409408 103.23057327404277 H 0.0 **** 0.06
3889 H 91.489845575376 80.83805395429127 104.98193004458975 H 0.0 **** 0.06
3890 H 92.8000797217328 81.62428572614445 104.06857169604987 H 0.0 **** 0.06
3891 C 113.67685865967684 108.47253869922218 63.79171362058759 C 0.0 **** -0.24
3892 H 113.67761039922763 107.40448815814065 63.574371497794196 H 0.0 **** 0.06
3893 H 113.39251185106761 108.6310018555422 64.83174026579562 H 0.0 **** 0.06
3894 H 112.9641619962333 108.97512155440822 63.138100548256794 H 0.0 **** 0.06
3895 H 114.67421036577046 108.87824159131063 63.62116485058268 H 0.0 **** 0.06
3896 C 4.520514465377204 71.1803431983245 100.37922640641483 C 0.0 **** -0.24
3897 H 4.045503459419535 70.87430591558402 101.31058980414895 H 0.0 **** 0.06
3898 H 5.49153637416606 70.69242329697644 100.28906651537707 H 0.0 **** 0.06
3899 H 4.656108528816162 72.26290082115358 100.3799304035671 H 0.0 **** 0.06
3900 H 3.8891486152259063 70.89382500988575 99.53809821987971 H 0.0 **** 0.06
3901 C 75.11266931193529 27.868227768813085 86.73857208689893 C 0.0 **** -0.24
3902 H 74.37472554901245 28.06290040852184 85.95915640966766 H 0.0 **** 0.06
3903 H 74.7039248807227 28.159490793919872 87.70657467761333 H 0.0 **** 0.06
3904 H 76.01511239272975 28.44367205424294 86.53620262320482 H 0.0 **** 0.06
3905 H 75.35437936673793 26.805562906516684 86.75064493201418 H 0.0 **** 0.06
3906 C 49.01075853963018 16.95060841238795 54.65801796981691 C 0.0 **** -0.24
3907 H 49.490907668493925 17.377948968626114 55.53859619962492 H 0.0 **** 0.06
3908 H 48.656666170797095 17.754611526062764 54.012413799485955 H 0.0 **** 0.06
3909 H 48.16738473668827 16.333541358640346 54.96810507778457 H 0.0 **** 0.06
3910 H 49.72943696783744 16.337843465132472 54.11388511562541 H 0.0 **** 0.06
3911 C 50.598273235699125 10.212895857873917 64.9670033138334 C 0.0 **** -0.24
3912 H 50.75127539982089 10.802188357725676 65.87089478621334 H 0.0 **** 0.06
3913 H 49.52951798400656 10.122069556468379 64.77043785145855 H 0.0 **** 0.06
3914 H 51.02845993961933 9.220203042360541 65.10411483606896 H 0.0 **** 0.06
3915 H 51.083279402940875 10.706352200577545 64.12458892600017 H 0.0 **** 0.06
3916 C 72.06957534799287 5.612044111783774 76.50791861978547 C 0.0 **** -0.24
3917 H 72.42692061853026 6.602921331515603 76.78924557229186 H 0.0 **** 0.06
3918 H 72.60965995232672 5.267412136097093 75.62574653717951 H 0.0 **** 0.06
3919 H 71.00317183316952 5.661950661152531 76.28523481837237 H 0.0 **** 0.06
3920 H 72.23647406063918 4.918932996679956 77.33211817143433 H 0.0 **** 0.06
3921 C 26.984923651411734 109.9563046945195 85.65524012099982 C 0.0 **** -0.24
3922 H 26.254992249267907 109.39084063746245 85.07568710724036 H 0.0 **** 0.06
3923 H 27.891806586017253 109.36226627495321 85.77328626524783 H 0.0 **** 0.06
3924 H 26.570319509351336 110.18666677086853 86.63682448762845 H 0.0 **** 0.06
3925 H 27.22263896780006 110.88332696373942 85.13393383477569 H 0.0 **** 0.06
3926 C 43.690277780355075 62.140115505772435 118.3666825069119 C 0.0 **** -0.24
3927 H 43.275532934934006 61.14172804428697 118.22561035554747 H 0.0 **** 0.06
3928 H 44.582994028312385 62.07813505917077 118.98993872779954 H 0.0 **** 0.06
3929 H 42.95031021700373 62.77551038730709 118.8528485823154 H 0.0 **** 0.06
3930 H 43.95269662782857 62.565117066693 117.39742650468901 H 0.0 **** 0.06
3931 C 5.03460388667591 44.106125085049825 42.28683533925767 C 0.0 **** -0.24
3932 H 4.280360754161322 44.367918739668255 41.54396349703685 H 0.0 **** 0.06
3933 H 5.834368589920658 43.54108113328152 41.80714697057635 H 0.0 **** 0.06
3934 H 4.57862085651341 43.49927033283876 43.0688442230799 H 0.0 **** 0.06
3935 H 5.443837748746944 45.016414757948496 42.7246554724907 H 0.0 **** 0.06
3936 C 116.45060000332246 3.5726601327019623 48.389448709254836 C 0.0 **** -0.24
3937 H 116.75326381088443 2.631154574706388 47.93023189947944 H 0.0 **** 0.06
3938 H 115.60571005484312 3.3956933370041256 49.05451924865841 H 0.0 **** 0.06
3939 H 116.15932243344035 4.278551791805283 47.61175052680926 H 0.0 **** 0.06
3940 H 117.28361329393957 3.982962590300474 48.95940381689019 H 0.0 **** 0.06
3941 C 73.28341924859978 85.26853887301465 7.591049168283348 C 0.0 **** -0.24
3942 H 73.54926089697022 86.27520288630723 7.268421033796926 H 0.0 **** 0.06
3943 H 72.8096992036065 84.73671517047225 6.766117062924081 H 0.0 **** 0.06
3944 H 72.59225444179953 85.32850210540371 8.431758243630725 H 0.0 **** 0.06
3945 H 74.18385047251456 84.73657651171976 7.8978598177642425 H 0.0 **** 0.06
3946 C 70.54437193716791 36.13590853937464 118.60952807661039 C 0.0 **** -0.24
3947 H 70.29844501849652 35.2930731687554 119.25558738171611 H 0.0 **** 0.06
3948 H 69.98567203078576 36.05360162072489 117.67689301952794 H 0.0 **** 0.06
3949 H 71.61310615006423 36.13133086189484 118.39583590621311 H 0.0 **** 0.06
3950 H 70.27883429209797 37.0663960539062 119.11163054760468 H 0.0 **** 0.06
3951 C 65.3649441763148 51.333643732303955 1.504539989481243 C 0.0 **** -0.24
3952 H 65.23585653102114 51.56626206432745 0.4476501166785738 H 0.0 **** 0.06
3953 H 65.79675566568858 52.19371900754419 2.015672507729704 H 0.0 **** 0.06
3954 H 66.030970322216 50.476232562910866 1.6087151875660197 H 0.0 **** 0.06
3955 H 64.39686419101565 51.09680659635916 1.9457558474231451 H 0.0 **** 0.06
3956 C 61.91838222184799 55.800237546497264 23.17102144727292 C 0.0 **** -0.24
3957 H 61.8773871279908 54.845319570251995 22.647870281908325 H 0.0 **** 0.06
3958 H 62.17357097893324 56.59092666148789 22.46417658939845 H 0.0 **** 0.06
3959 H 62.67493125800297 55.75469170430227 23.954425726461125 H 0.0 **** 0.06
3960 H 60.946052176659464 56.0110836058715 23.616458718245553 H 0.0 **** 0.06
3961 C 3.466828843073557 17.249054801519236 19.791384374956916 C 0.0 **** -0.24
3962 H 3.5461448662215815 18.33511423108422 19.75050676744774 H 0.0 **** 0.06
3963 H 4.441993012778781 16.822884680101794 20.02997623610998 H 0.0 **** 0.06
3964 H 3.1324180477801207 16.872763024516274 18.82519910132955 H 0.0 **** 0.06
3965 H 2.748230118755828 16.966796137298786 20.5600670036022 H 0.0 **** 0.06
3966 C 21.337289473612117 98.55351153567352 53.33653703783241 C 0.0 **** -0.24
3967 H 20.677355341324557 97.68526755197777 53.32248228897277 H 0.0 **** 0.06
3968 H 20.74582319638992 99.45514188115396 53.49346840142399 H 0.0 **** 0.06
3969 H 21.863651726894602 98.6238162461714 52.38525206970174 H 0.0 **** 0.06
3970 H 22.060665951235222 98.44591889357628 54.14507797751528 H 0.0 **** 0.06
3971 C 61.023070040509744 70.8228973350578 60.27848687203106 C 0.0 **** -0.24
3972 H 59.990769611173455 71.17200829393659 60.30282802670552 H 0.0 **** 0.06
3973 H 61.31967322075425 70.63967492566599 59.24466321416457 H 0.0 **** 0.06
3974 H 61.107494060473776 69.89906702794579 60.85065404165278 H 0.0 **** 0.06
3975 H 61.672934560847274 71.58184197833663 60.7140672433867 H 0.0 **** 0.06
3976 C 37.782131592997814 80.39219377294091 48.252645971644995 C 0.0 **** -0.24
3977 H 37.44944237155045 80.36337459648007 49.29017113221366 H 0.0 **** 0.06
3978 H 37.12639877622212 79.76885357246437 47.64404541065903 H 0.0 **** 0.06
3979 H 38.80371447676862 80.01793068508812 48.188687667470646 H 0.0 **** 0.06
3980 H 37.748385632026185 81.41917555423555 47.889508617908575 H 0.0 **** 0.06
3981 C 11.027283989944419 69.53564568421996 21.3484313789144 C 0.0 **** -0.24
3982 H 11.070808053029698 68.44648539662069 21.378889679255735 H 0.0 **** 0.06
3983 H 11.929739351808216 69.92237863006972 20.875344641966336 H 0.0 **** 0.06
3984 H 10.953696343147286 69.92341229618398 22.364373321958396 H 0.0 **** 0.06
3985 H 10.154016700395115 69.84718998715766 20.77584035139438 H 0.0 **** 0.06
3986 C 99.76075631534823 110.62363083380106 91.48616435560206 C 0.0 **** -0.24
3987 H 99.62975265827322 111.68696569430955 91.68343845594313 H 0.0 **** 0.06
3988 H 99.15065866539109 110.3358047990825 90.62857803645758 H 0.0 **** 0.06
3989 H 99.44988618205772 110.05144904059031 92.36022092102684 H 0.0 **** 0.06
3990 H 100.80981530350451 110.41915958118551 91.27132046581454 H 0.0 **** 0.06
3991 C 57.56860882091542 100.64561381358027 92.1007018642004 C 0.0 **** -0.24
3992 H 56.56438486347118 100.3779428102072 92.4294428122368 H 0.0 **** 0.06
3993 H 58.24740515000699 99.81548494696435 92.29386937407986 H 0.0 **** 0.06
3994 H 57.906228548676744 101.5266379348071 92.64781485567724 H 0.0 **** 0.06
3995 H 57.5542440809238 100.86394466050061 91.03304489404164 H 0.0 **** 0.06
3996 C 42.189156701888585 81.51838350095744 22.44735970486886 C 0.0 **** -0.24
3997 H 42.842779721831256 81.28119739173673 21.607542543906163 H 0.0 **** 0.06
3998 H 42.785727728324964 81.62319547428748 23.353502951196447 H 0.0 **** 0.06
3999 H 41.4626424425592 80.7172448145667 22.580363173341368 H 0.0 **** 0.06
4000 H 41.665430358523054 82.45400831434182 22.24679012681122 H 0.0 **** 0.06
4001 C 41.5478974179818 56.65433286744212 50.172582924739615 C 0.0 **** -0.24
4002 H 41.64174004647086 55.70758740234288 50.70430719656537 H 0.0 **** 0.06
4003 H 42.50751634402573 56.918428773857755 49.728622367244874 H 0.0 **** 0.06
4004 H 41.243122424289226 57.43454703654052 50.871168831048465 H 0.0 **** 0.06
4005 H 40.79841696817496 56.55664053451977 49.38739672087616 H 0.0 **** 0.06
4006 C 119.11902918410522 2.0771008851966926 93.53888770985509 C 0.0 **** -0.24
4007 H 118.86076550403408 2.6426943323568466 94.43425359198034 H 0.0 **** 0.06
4008 H 118.36439374569056 1.3089680525438556 93.36411773572874 H 0.0 **** 0.06
4009 H 120.09177639929638 1.6056660510246648 93.6758224882478 H 0.0 **** 0.06
4010 H 119.15770546708299 2.749573522980656 92.68260927364287 H 0.0 **** 0.06
4011 C 11.394656955766266 102.48166636858744 49.851981750283954 C 0.0 **** -0.24
4012 H 10.422548329376411 102.84792941073533 49.52289012932059 H 0.0 **** 0.06
4013 H 11.818074177631615 103.1750133508742 50.57820479389932 H 0.0 **** 0.06
4014 H 12.061734700233728 102.4016517344275 48.993447481266415 H 0.0 **** 0.06
4015 H 11.27547151703726 101.50053652639335 50.31196784799485 H 0.0 **** 0.06
4016 C 83.21025555442455 105.86930174760386 115.54732888395014 C 0.0 **** -0.24
4017 H 83.55350497408503 106.83443761615393 115.17529300010327 H 0.0 **** 0.06
4018 H 83.16511754335667 105.15820709459933 114.72189618815062 H 0.0 **** 0.06
4019 H 82.21801515344231 105.98179553899547 115.98474320277921 H 0.0 **** 0.06
4020 H 83.90214615255158 105.50462129350396 116.30502708785576 H 0.0 **** 0.06
4021 C 77.24055996543399 67.91187784040108 106.23789445603268 C 0.0 **** -0.24
4022 H 76.19769268487835 67.65400656806008 106.41908580308154 H 0.0 **** 0.06
4023 H 77.85584304665332 67.01529314145003 106.31361592271685 H 0.0 **** 0.06
4024 H 77.56837681495611 68.64150963344997 106.97919652576604 H 0.0 **** 0.06
4025 H 77.34043315356445 68.33893146032665 105.23954294771931 H 0.0 **** 0.06
4026 C 98.42102726105111 85.29700866448164 21.260086871774043 C 0.0 **** -0.24
4027 H 99.35503323933062 85.68059863836473 21.670727463239636 H 0.0 **** 0.06
4028 H 97.7923590276099 84.92790707821447 22.070453704310594 H 0.0 **** 0.06
4029 H 98.63672630008273 84.48356595418846 20.56710200201414 H 0.0 **** 0.06
4030 H 97.9023622492573 86.09669661818529 20.730708984349988 H 0.0 **** 0.06
4031 C 55.318226100433264 52.2021726769799 47.58766172266908 C 0.0 **** -0.24
4032 H 55.89705883700162 52.481958185267665 48.468532840395795 H 0.0 **** 0.06
4033 H 55.96033083251831 51.665570212298945 46.88798999214612 H 0.0 **** 0.06
4034 H 54.928435571428906 53.100055469602076 47.108803783205246 H 0.0 **** 0.06
4035 H 54.490268716670585 51.55944942237651 47.886359734816736 H 0.0 **** 0.06
4036 C 88.08398926992263 29.436560132582485 37.9610722107804 C 0.0 **** -0.24
4037 H 88.41014527437642 29.36269709602834 38.99848902178098 H 0.0 **** 0.06
4038 H 88.89254078708075 29.845615446632223 37.35442125743498 H 0.0 **** 0.06
4039 H 87.21531616663268 30.093091137275053 37.90016837481966 H 0.0 **** 0.06
4040 H 87.81660406835093 28.446327771845517 37.592607640986444 H 0.0 **** 0.06
4041 C 97.95853797950772 54.7899203011487 38.62809291512944 C 0.0 **** -0.24
4042 H 98.31668997732379 55.28646687217383 37.72589292787665 H 0.0 **** 0.06
4043 H 98.29213457678617 55.34567515082452 39.50525485443966 H 0.0 **** 0.06
4044 H 98.35617342388551 53.77657302929623 38.666477778179505 H 0.0 **** 0.06
4045 H 96.86952453808706 54.75279942737413 38.613164299287654 H 0.0 **** 0.06
4046 C 75.46935262138223 97.76696549148585 58.037736362467285 C 0.0 **** -0.24
4047 H 75.45070418350699 96.81271172111764 58.56287637206552 H 0.0 **** 0.06
4048 H 75.25606403312409 97.60399684646666 56.98100112435142 H 0.0 **** 0.06
4049 H 76.4559761608923 98.22082107353799 58.143322193861735 H 0.0 **** 0.06
4050 H 74.7178393368687 98.4311867267711 58.463297174950895 H 0.0 **** 0.06
4051 C 36.32252970045877 97.03042441739524 8.264212079047695 C 0.0 **** -0.24
4052 H 36.94081940037552 97.8647378857718 8.59598614539641 H 0.0 **** 0.06
4053 H 36.62255765348601 96.73203981968055 7.260266898989073 H 0.0 **** 0.06
4054 H 35.275897109687065 97.33667885029294 8.254639235552474 H 0.0 **** 0.06
4055 H 36.44937406434923 96.19066209104662 8.947362037058497 H 0.0 **** 0.06
4056 C 104.13197711400525 33.29127731863474 45.34221014348594 C 0.0 **** -0.24
4057 H 103.36538652172854 33.824216914120484 44.77982115623007 H 0.0 **** 0.06
4058 H 104.92664492065634 33.98442958612321 45.619929777233324 H 0.0 **** 0.06
4059 H 104.54494194503746 32.49219615357265 44.72695292751581 H 0.0 **** 0.06
4060 H 103.69129955822225 32.86457385937183 46.244079127538555 H 0.0 **** 0.06
4061 C 22.44096349405777 6.321657673132222 21.58288157680505 C 0.0 **** -0.24
4062 H 22.88837126420998 5.51100825105317 21.007347080338604 H 0.0 **** 0.06
4063 H 23.215463675853385 7.0326426222077885 21.872104759963918 H 0.0 **** 0.06
4064 H 21.96926088063529 5.913751693155859 22.47786067374068 H 0.0 **** 0.06
4065 H 21.690489772759037 6.827105365539069 20.976063740078132 H 0.0 **** 0.06
4066 C 61.96329673431893 97.27348795187777 34.63059406853094 C 0.0 **** -0.24
4067 H 61.59430612039148 97.93140350098338 33.84417423751492 H 0.0 **** 0.06
4068 H 61.788800506246616 96.23496326879334 34.34668077034203 H 0.0 **** 0.06
4069 H 61.4377268578005 97.48930976455043 35.5606200679733 H 0.0 **** 0.06
4070 H 63.03217448369173 97.43752017239072 34.76935266355869 H 0.0 **** 0.06
4071 C 109.52405400654342 43.81116469629643 22.04894579475345 C 0.0 **** -0.24
4072 H 109.49667419895596 43.06452503952093 22.84307030641949 H 0.0 **** 0.06
4073 H 110.0138902454189 44.71331334685729 22.41554012927199 H 0.0 **** 0.06
4074 H 108.50607062190889 44.049744693685554 21.73993515459273 H 0.0 **** 0.06
4075 H 110.07895418996839 43.41563768566246 21.197972045323212 H 0.0 **** 0.06
4076 C 102.63731482727968 28.53716772314435 91.4284905221175 C 0.0 **** -0.24
4077 H 103.05157750089234 27.5318988021994 91.34789278745819 H 0.0 **** 0.06
4078 H 101.56161597972556 28.502143376673914 91.25581910753385 H 0.0 **** 0.06
4079 H 103.10426909220485 29.181673467130615 90.68348299864883 H 0.0 **** 0.06
4080 H 102.83290006166712 28.932441285938538 92.42553484561799 H 0.0 **** 0.06
4081 C 73.91286670066452 34.271889267449325 69.85209580140335 C 0.0 **** -0.24
4082 H 74.64701275602178 34.71042413595353 70.52751332600985 H 0.0 **** 0.06
4083 H 74.14683031579821 34.55493602677771 68.82623341277846 H 0.0 **** 0.06
4084 H 72.91823318535137 34.6350486631145 70.11150006736483 H 0.0 **** 0.06
4085 H 73.9383187595426 33.18540190034068 69.94447874548734 H 0.0 **** 0.06
4086 C 119.19882462952245 17.776031396576233 77.8220143140145 C 0.0 **** -0.24
4087 H 118.91866567406751 17.454649131098087 76.81880519628464 H 0.0 **** 0.06
4088 H 118.77221133644102 17.091709442512165 78.55571433363329 H 0.0 **** 0.06
4089 H 118.8202335949677 18.782659033510452 77.99962276618504 H 0.0 **** 0.06
4090 H 120.28560057707833 17.77399309037476 77.91304224883311 H 0.0 **** 0.06
4091 C 39.96787155077475 120.65962125968977 98.61499529765248 C 0.0 **** -0.24
4092 H 40.44424614169409 119.68502334426884 98.72734899616822 H 0.0 **** 0.06
4093 H 39.26550345694823 120.81656710688999 99.43441110351455 H 0.0 **** 0.06
4094 H 39.433035113115125 120.69426334406988 97.66577506538778 H 0.0 **** 0.06
4095 H 40.728047614919646 121.43965500579115 98.63329160887017 H 0.0 **** 0.06
4096 C 118.10590475209733 99.57212431040668 60.6804868568484 C 0.0 **** -0.24
4097 H 118.20870706905106 100.05430979363803 59.70912858652097 H 0.0 **** 0.06
4098 H 119.0527009064825 99.1062325595829 60.956581291674674 H 0.0 **** 0.06
4099 H 117.32789908930002 98.81091961904889 60.62785890014751 H 0.0 **** 0.06
4100 H 117.83495504193698 100.31688053700182 61.42912867440564 H 0.0 **** 0.06
4101 C 109.53260882636056 17.284583469645156 59.482578868128535 C 0.0 **** -0.24
4102 H 108.54160687707298 16.88845994954073 59.705828646303424 H 0.0 **** 0.06
4103 H 110.12226362861429 17.323027607965003 60.39884270859947 H 0.0 **** 0.06
4104 H 109.43781995968467 18.28843709101386 59.06951705243468 H 0.0 **** 0.06
4105 H 110.02809121146348 16.638115279275326 58.75824523440789 H 0.0 **** 0.06
4106 C 15.59033811384274 8.071499353180258 29.744520964979472 C 0.0 **** -0.24
4107 H 16.41752011224411 8.191864011533681 30.4437358051821 H 0.0 **** 0.06
4108 H 15.929555140515259 7.507723793886925 28.874817496509507 H 0.0 **** 0.06
4109 H 15.238716346606473 9.053290425266113 29.42631726950549 H 0.0 **** 0.06
4110 H 14.777091451464365 7.534375461760135 30.23177128568169 H 0.0 **** 0.06
4111 C 29.54145961889384 65.27022391263421 52.978242150788645 C 0.0 **** -0.24
4112 H 29.77435676111196 64.70120013091011 52.078129383787314 H 0.0 **** 0.06
4113 H 28.75276815039416 64.76364955359628 53.53397795271414 H 0.0 **** 0.06
4114 H 29.20677454196408 66.26932829117348 52.69922339216308 H 0.0 **** 0.06
4115 H 30.433825030451544 65.34656761788523 53.600081985870105 H 0.0 **** 0.06
4116 C 65.25268844330327 53.62040068440143 49.536346731160336 C 0.0 **** -0.24
4117 H 64.4070065928725 52.987546344144135 49.80814408564777 H 0.0 **** 0.06
4118 H 64.90764677889112 54.64394823342053 49.38912306056619 H 0.0 **** 0.06
4119 H 65.70024259966132 53.25109550981165 48.614387938070024 H 0.0 **** 0.06
4120 H 65.99426522193357 53.59845012483515 50.33519728667204 H 0.0 **** 0.06
4121 C 24.698937636179195 20.251563065995043 74.9623272801081 C 0.0 **** -0.24
4122 H 25.231287058286455 20.238777457329746 75.91273965377476 H 0.0 **** 0.06
4123 H 24.18456248520237 21.206940433695564 74.84705560827223 H 0.0 **** 0.06
4124 H 23.969105493935338 19.44155614197433 74.94405128923185 H 0.0 **** 0.06
4125 H 25.408356114167766 20.12027866714945 74.14606146167628 H 0.0 **** 0.06
4126 C 82.58936781244944 92.00435183842899 56.15544515555822 C 0.0 **** -0.24
4127 H 83.22812231498591 92.88680195868236 56.133206658238215 H 0.0 **** 0.06
4128 H 83.17980322115801 91.13573507303695 56.447251736911234 H 0.0 **** 0.06
4129 H 82.16289584257214 91.83888315011387 55.166633322978875 H 0.0 **** 0.06
4130 H 81.78609342468519 92.15588724060865 56.876326142064165 H 0.0 **** 0.06
4131 C 82.550430869564 6.819822492319702 95.23148902113621 C 0.0 **** -0.24
4132 H 83.28611016007474 7.36967897086236 95.81868488135808 H 0.0 **** 0.06
4133 H 82.78380870505333 6.919477008307762 94.17117165166118 H 0.0 **** 0.06
4134 H 81.55675599959503 7.223691693218942 95.42511764592803 H 0.0 **** 0.06
4135 H 82.57635152509718 5.766282996577864 95.51150836185508 H 0.0 **** 0.06
4136 C 104.65380229417667 51.651503004707195 117.01828877487259 C 0.0 **** -0.24
4137 H 103.61468840372345 51.42097984467202 116.78293896116395 H 0.0 **** 0.06
4138 H 104.81106467998643 52.727944471148305 116.94844284825271 H 0.0 **** 0.06
4139 H 105.30789539533873 51.141302475359566 116.31148063774668 H 0.0 **** 0.06
4140 H 104.87959532255877 51.315918300994554 118.03063879514954 H 0.0 **** 0.06
4141 C 13.350120913457602 9.256842992045677 89.70078827751556 C 0.0 **** -0.24
4142 H 12.874834990900808 8.75583259431474 90.54426264967066 H 0.0 **** 0.06
4143 H 14.396467798871583 8.956869783768525 89.64274171017149 H 0.0 **** 0.06
4144 H 13.288067177475853 10.336880195914603 89.83788735945112 H 0.0 **** 0.06
4145 H 12.839812035333694 8.978255559310412 88.77855888938905 H 0.0 **** 0.06
4146 C 114.24657578048921 66.87814106293735 69.74854705099193 C 0.0 **** -0.24
4147 H 114.89517933247973 67.3616096705876 69.01867061366553 H 0.0 **** 0.06
4148 H 114.0101219837606 67.58351189442644 70.54708752552571 H 0.0 **** 0.06
4149 H 114.75587757096002 66.01070975532 70.16851698723426 H 0.0 **** 0.06
4150 H 113.32509080896071 66.55935493631924 69.26097346346185 H 0.0 **** 0.06
4151 C 98.59026978026117 55.95406592942379 82.83628074028996 C 0.0 **** -0.24
4152 H 98.23411251398988 55.34121509410278 83.66450655525531 H 0.0 **** 0.06
4153 H 97.7385600092019 56.40459170873663 82.32531675609908 H 0.0 **** 0.06
4154 H 99.14641989676014 55.330047684722445 82.13672130296132 H 0.0 **** 0.06
4155 H 99.2416469823722 56.73985001444174 83.21933460385381 H 0.0 **** 0.06
4156 C 120.22187177738758 29.671833294957416 43.889765432926886 C 0.0 **** -0.24
4157 H 119.76800375703702 29.055458393582967 43.11328106646865 H 0.0 **** 0.06
4158 H 119.58655679726193 29.666691316376216 44.7754942677332 H 0.0 **** 0.06
4159 H 120.3296193542924 30.69331677658647 43.52454754816857 H 0.0 **** 0.06
4160 H 121.20383904801616 29.271427991447005 44.14249457874212 H 0.0 **** 0.06
4161 C 24.068590909946728 90.34046730361976 110.64768491686104 C 0.0 **** -0.24
4162 H 24.134942322521574 89.38660030761818 110.12625681582531 H 0.0 **** 0.06
4163 H 25.071576045773924 90.6910845595024 110.89293690893243 H 0.0 **** 0.06
4164 H 23.493538269634833 90.21414694960313 111.56517920939763 H 0.0 **** 0.06
4165 H 23.575167510673616 91.0708909220028 110.00709552150187 H 0.0 **** 0.06
4166 C 57.9505495518097 117.38852892256328 14.392653463502011 C 0.0 **** -0.24
4167 H 57.04881457823791 117.5919445545514 13.815061697647298 H 0.0 **** 0.06
4168 H 58.632718189468676 116.77931144452866 13.79966092942561 H 0.0 **** 0.06
4169 H 57.68409625016119 116.85323399774718 15.3046919386708 H 0.0 **** 0.06
4170 H 58.43522295344874 118.33000694659471 14.652628454983951 H 0.0 **** 0.06
4171 C 59.113019458786084 13.751996321303864 61.84948169029403 C 0.0 **** -0.24
4172 H 59.87649370217039 13.50251177398286 62.58575176360074 H 0.0 **** 0.06
4173 H 59.421144410744944 14.637438065329974 61.29366063191131 H 0.0 **** 0.06
4174 H 58.16997260553339 13.952096973391264 62.35777340815602 H 0.0 **** 0.06
4175 H 58.985633933255116 12.916696498852787 61.16099403162218 H 0.0 **** 0.06
4176 C 52.70529494112751 23.529430503893195 20.383855173568378 C 0.0 **** -0.24
4177 H 53.16490375656823 22.63000263213098 19.972833972595524 H 0.0 **** 0.06
4178 H 51.62490872661082 23.479564161197743 20.24896968864273 H 0.0 **** 0.06
4179 H 53.09699290870328 24.405054927002993 19.86589598690871 H 0.0 **** 0.06
4180 H 52.93735202905649 23.601424255655502 21.44656988275328 H 0.0 **** 0.06
4181 C 3.68646557155283 111.33985482312639 26.859629263437142 C 0.0 **** -0.24
4182 H 3.8220246390686157 111.5572016784505 25.799634322791604 H 0.0 **** 0.06
4183 H 4.098350567256887 110.35494591967984 27.083844417116893 H 0.0 **** 0.06
4184 H 2.6235618595762844 111.35334590519065 27.100315379145542 H 0.0 **** 0.06
4185 H 4.2029161068027605 112.09424538396496 27.453338676726673 H 0.0 **** 0.06
4186 C 72.43793962031566 106.75735207206114 56.97162597428581 C 0.0 **** -0.24
4187 H 72.46969814454178 107.75520371504055 57.40844583635148 H 0.0 **** 0.06
4188 H 72.03433515952918 106.05378806918054 57.700050496385565 H 0.0 **** 0.06
4189 H 73.44557411085464 106.45161109266073 56.69017382643367 H 0.0 **** 0.06
4190 H 71.80196319596598 106.76842365650813 56.08648500550077 H 0.0 **** 0.06
4191 C 29.706932851297466 20.942552775454914 87.2930318999087 C 0.0 **** -0.24
4192 H 29.220862944125855 19.967795691518234 87.33876836571923 H 0.0 **** 0.06
4193 H 29.42539374346481 21.530387466105623 88.16647692683912 H 0.0 **** 0.06
4194 H 29.39167518492539 21.462579396371694 86.38778877676123 H 0.0 **** 0.06
4195 H 30.78840814239237 20.8087360160616 87.27616830487807 H 0.0 **** 0.06
4196 C 92.53448052056842 90.06748226713697 66.94362213445538 C 0.0 **** -0.24
4197 H 92.26729102630884 89.68528282488552 67.92842944841604 H 0.0 **** 0.06
4198 H 93.5405679074625 90.4889130248408 66.97867322940004 H 0.0 **** 0.06
4199 H 91.82638542334797 90.84208044563081 66.64882366824324 H 0.0 **** 0.06
4200 H 92.50706915439065 89.25427009675357 66.21821899021228 H 0.0 **** 0.06
4201 C 47.42679583119916 28.989357019544457 114.07870365051689 C 0.0 **** -0.24
4202 H 47.65343891465091 29.622998898292103 113.22116122039958 H 0.0 **** 0.06
4203 H 46.678103569434086 29.47814809049899 114.70277605090918 H 0.0 **** 0.06
4204 H 48.33412228535164 28.82499645804765 114.65958523653792 H 0.0 **** 0.06
4205 H 47.03991788364861 28.031909037991497 113.7295461559687 H 0.0 **** 0.06
4206 C 81.22038413725517 32.46570314783226 73.0243657178288 C 0.0 **** -0.24
4207 H 80.9370130196701 32.391754749649664 71.97408022530291 H 0.0 **** 0.06
4208 H 80.4714821724514 33.04988589587782 73.5608986601994 H 0.0 **** 0.06
4209 H 82.18994832933708 32.95501355961041 73.10556063433569 H 0.0 **** 0.06
4210 H 81.27955948207514 31.466798428638256 73.45587207547484 H 0.0 **** 0.06
4211 C 104.57355921465114 107.39936332787758 72.14543924477348 C 0.0 **** -0.24
4212 H 105.44455134830059 107.36234576145898 71.49091075122496 H 0.0 **** 0.06
4213 H 104.36549956296068 108.43428111592638 72.41431914555446 H 0.0 **** 0.06
4214 H 104.77346515881615 106.82200785529423 73.04868918796308 H 0.0 **** 0.06
4215 H 103.71275865068594 106.97645339753271 71.6273343152867 H 0.0 **** 0.06
4216 C 8.527851394915274 13.81626075257195 28.5903999281048 C 0.0 **** -0.24
4217 H 9.49395579779565 13.667126415303379 29.072317293293175 H 0.0 **** 0.06
4218 H 7.909213261948707 14.464281339384716 29.210954750836592 H 0.0 **** 0.06
4219 H 8.032992049654467 12.852538562086558 28.46374691667883 H 0.0 **** 0.06
4220 H 8.676421039946433 14.279522353636104 27.614951373221814 H 0.0 **** 0.06
4221 C 38.445020676777354 26.654403325259665 87.17457585480844 C 0.0 **** -0.24
4222 H 38.491436815332776 26.344902722537682 88.21922130223683 H 0.0 **** 0.06
4223 H 37.49879318719254 27.162976006993716 86.98859864905674 H 0.0 **** 0.06
4224 H 38.51967384011767 25.777312439184215 86.53178614703432 H 0.0 **** 0.06
4225 H 39.27144647604733 27.333459938613856 86.96121060957705 H 0.0 **** 0.06
4226 C 56.291474902784955 73.56014935382947 60.28920639977912 C 0.0 **** -0.24
4227 H 56.30885920726385 74.42139747843089 60.95720684331343 H 0.0 **** 0.06
4228 H 55.969764648753454 73.87660720082576 59.29654677860697 H 0.0 **** 0.06
4229 H 55.5969250289383 72.8145396189085 60.67706431455008 H 0.0 **** 0.06
4230 H 57.29048392185848 73.12871520134388 60.227890247593336 H 0.0 **** 0.06
4231 C 44.345144864264256 14.330005387039705 81.81235557657365 C 0.0 **** -0.24
4232 H 43.696165536829284 15.197560346901469 81.6926043475695 H 0.0 **** 0.06
4233 H 44.82282910033061 14.099696237210196 80.85937149085163 H 0.0 **** 0.06
4234 H 43.75151520154813 13.47461811640892 82.13677758324246 H 0.0 **** 0.06
4235 H 45.10823933235332 14.547814189911378 82.55907523285393 H 0.0 **** 0.06
4236 C 105.67876549090357 109.52560861338796 94.66233261416403 C 0.0 **** -0.24
4237 H 104.94877341467108 109.4115807037841 93.86058180089228 H 0.0 **** 0.06
4238 H 106.2565810389485 110.43529094739199 94.50081995811018 H 0.0 **** 0.06
4239 H 106.34808445955525 108.6655617069344 94.66985225663032 H 0.0 **** 0.06
4240 H 105.15954836630362 109.5902836666223 95.61934772904712 H 0.0 **** 0.06
4241 C 8.144893267446072 59.184734874497934 14.864228868946057 C 0.0 **** -0.24
4242 H 8.249386642214013 60.267895854573766 14.801558668897275 H 0.0 **** 0.06
4243 H 9.008671532968034 58.765832023894575 15.38043777700398 H 0.0 **** 0.06
4244 H 8.084866265650387 58.767290954744 13.858832681159281 H 0.0 **** 0.06
4245 H 7.237422829076042 58.938450536290844 15.414056538717691 H 0.0 **** 0.06
4246 C 79.26246062718857 66.2985087122928 47.602766285618856 C 0.0 **** -0.24
4247 H 78.76949764582193 66.37695993015873 48.57141276284358 H 0.0 **** 0.06
4248 H 79.78806108971958 67.22903498093464 47.38610479727885 H 0.0 **** 0.06
4249 H 78.51584597996148 66.11286538582254 46.83005463056324 H 0.0 **** 0.06
4250 H 79.97553985432998 65.47408431874891 47.62356511771216 H 0.0 **** 0.06
4251 C 5.0338695485347635 13.013620125634318 106.40335823612085 C 0.0 **** -0.24
4252 H 5.998334352861512 13.371213071902844 106.04277668626477 H 0.0 **** 0.06
4253 H 4.661724157050619 12.236518969584615 105.73522369291967 H 0.0 **** 0.06
4254 H 4.326048381254138 13.842968031379101 106.42703200068073 H 0.0 **** 0.06
4255 H 5.1490923765139485 12.605843494485882 107.40758432818751 H 0.0 **** 0.06
4256 C 41.032768459443844 31.13678543607074 113.30012089558284 C 0.0 **** -0.24
4257 H 41.03273567062928 32.219527524570424 113.42403084092251 H 0.0 **** 0.06
4258 H 40.36915949998348 30.686684594173585 114.0382160728264 H 0.0 **** 0.06
4259 H 42.04492367003985 30.754849219541597 113.43972670157598 H 0.0 **** 0.06
4260 H 40.68519915493238 30.88543690570009 112.29767654950976 H 0.0 **** 0.06
4261 C 95.30114078364065 30.856984969832297 107.26737197087289 C 0.0 **** -0.24
4262 H 95.06430306206167 31.803415344642758 106.78082742696907 H 0.0 **** 0.06
4263 H 94.94740692546122 30.032256338235698 106.64915587825263 H 0.0 **** 0.06
4264 H 94.81364897285903 30.81684448032695 108.24125059893441 H 0.0 **** 0.06
4265 H 96.38040636888255 30.776114752779506 107.39853202171335 H 0.0 **** 0.06
4266 C 67.47266935196654 23.01154777474484 29.910400913851724 C 0.0 **** -0.24
4267 H 66.68575990202564 22.28101611302764 30.098486393828637 H 0.0 **** 0.06
4268 H 68.15747560404745 22.622094553504958 29.155927711741704 H 0.0 **** 0.06
4269 H 68.02046672661314 23.20131947652969 30.833965703322235 H 0.0 **** 0.06
4270 H 67.02911649000336 23.940673971867426 29.55370713781184 H 0.0 **** 0.06
4271 C 58.618776949906845 72.58323115515998 7.174630212988177 C 0.0 **** -0.24
4272 H 59.18007189879939 71.64951961381774 7.220323917241785 H 0.0 **** 0.06
4273 H 58.67100783234235 73.08585974531476 8.14087170122474 H 0.0 **** 0.06
4274 H 57.57862067208481 72.37060299346345 6.929870631522817 H 0.0 **** 0.06
4275 H 59.04816876449659 73.2268986850398 6.406282660102704 H 0.0 **** 0.06
4276 C 38.09388034271156 97.82994299976792 14.784626676044649 C 0.0 **** -0.24
4277 H 37.27757085298168 98.33046790721323 15.30532309243613 H 0.0 **** 0.06
4278 H 38.6051943171332 97.15673191621113 15.472694249096559 H 0.0 **** 0.06
4279 H 38.7980622210313 98.57499612216532 14.413703662941082 H 0.0 **** 0.06
4280 H 37.694353999330815 97.2587977584127 13.946159631229936 H 0.0 **** 0.06
4281 C 55.374903421359825 99.40107237132679 86.28876450081898 C 0.0 **** -0.24
4282 H 55.70244594959218 98.67336081500349 87.03177187424191 H 0.0 **** 0.06
4283 H 56.216440422787095 100.03493454460568 86.00662015586877 H 0.0 **** 0.06
4284 H 54.58051040003945 100.01783179775936 86.71034097862196 H 0.0 **** 0.06
4285 H 55.00078391508662 98.87878242508549 85.40862593395147 H 0.0 **** 0.06
4286 C 100.35570689780778 122.17589732385606 119.25254682431328 C 0.0 **** -0.24
4287 H 99.9620437510379 123.0941852330234 118.81509299288929 H 0.0 **** 0.06
4288 H 100.36401804941772 121.38933045814716 118.49863730330792 H 0.0 **** 0.06
4289 H 99.72365614296046 121.87290619502227 120.08790806647987 H 0.0 **** 0.06
4290 H 101.37030602759245 122.35049665385688 119.60831039430474 H 0.0 **** 0.06
4291 C 78.62571621115038 3.7773462760982284 35.524843828837845 C 0.0 **** -0.24
4292 H 77.7255894013199 4.369016219532455 35.362220158981046 H 0.0 **** 0.06
4293 H 79.1800139161231 4.184611300637812 36.369949940131676 H 0.0 **** 0.06
4294 H 79.24831707291918 3.809933115717058 34.63089003824334 H 0.0 **** 0.06
4295 H 78.3474543636039 2.744174529824022 35.73655519998957 H 0.0 **** 0.06
4296 C 95.58965849881702 74.33780784160118 51.05829316290664 C 0.0 **** -0.24
4297 H 95.17966888916888 73.90502959907025 50.145979828726254 H 0.0 **** 0.06
4298 H 95.60314928057116 73.58300513188351 51.84454184938012 H 0.0 **** 0.06
4299 H 94.97047610090209 75.17780701319754 51.37211738729249 H 0.0 **** 0.06
4300 H 96.60653114320326 74.68612389195897 50.87073725531832 H 0.0 **** 0.06
4301 C 67.78893066523148 61.928676660386934 97.8904231068081 C 0.0 **** -0.24
4302 H 68.29629657599781 62.82166412520285 97.52625238581072 H 0.0 **** 0.06
4303 H 66.81326129809582 61.84504585108598 97.41159922670113 H 0.0 **** 0.06
4304 H 67.6592889080344 61.99883937201238 98.9704815989113 H 0.0 **** 0.06
4305 H 68.38832466998326 61.049421530166136 97.65244743187782 H 0.0 **** 0.06
4306 C 62.79854369713264 58.32375730713252 78.5822081720575 C 0.0 **** -0.24
4307 H 62.83938761267644 58.61044517192868 79.63282558432738 H 0.0 **** 0.06
4308 H 63.424998370112384 58.99780451537004 77.99821158120903 H 0.0 **** 0.06
4309 H 61.76867100335897 58.385951528545824 78.22896702440482 H 0.0 **** 0.06
4310 H 63.16042344129645 57.30175058761571 78.46964509458127 H 0.0 **** 0.06
4311 C 76.94042022415869 49.93225937751208 121.24595800758776 C 0.0 **** -0.24
4312 H 76.53393960822811 50.60528457069154 120.4908376571224 H 0.0 **** 0.06
4313 H 77.99467955342342 49.74675131933094 121.03726869337984 H 0.0 **** 0.06
4314 H 76.3941963093776 48.98922675270603 121.22427772283828 H 0.0 **** 0.06
4315 H 76.84003054118699 50.3872258468067 122.23086383931384 H 0.0 **** 0.06
4316 C 121.88187591105238 95.38874557403733 57.53005879653557 C 0.0 **** -0.24
4317 H 122.56346053542651 95.19749105782921 56.70235405763037 H 0.0 **** 0.06
4318 H 122.06308046974956 94.66514182161191 58.325386839283624 H 0.0 **** 0.06
4319 H 120.85277938616409 95.2974886220747 57.18187541389119 H 0.0 **** 0.06
4320 H 122.04794284812915 96.39721558722053 57.911249344532905 H 0.0 **** 0.06
4321 C 113.5769416175506 64.34915573803934 84.18033657817784 C 0.0 **** -0.24
4322 H 112.73222324136208 64.15209987743694 83.52109768433166 H 0.0 **** 0.06
4323 H 114.29381004266938 64.99441408454459 83.67119069182979 H 0.0 **** 0.06
4324 H 114.05901067764964 63.40723685652492 84.44366606364017 H 0.0 **** 0.06
4325 H 113.22432894709908 64.84198286660833 85.08666813210633 H 0.0 **** 0.06
4326 C 15.987031764433684 102.56901110971768 99.31751438884899 C 0.0 **** -0.24
4327 H 15.827548648900109 102.16984480693844 100.31924715521114 H 0.0 **** 0.06
4328 H 15.061811486852019 103.01699460789092 98.95314859826837 H 0.0 **** 0.06
4329 H 16.289103328843154 101.7630190510369 98.64921680059322 H 0.0 **** 0.06
4330 H 16.77030524721152 103.32743890597425 99.34858120099418 H 0.0 **** 0.06
4331 C 97.73980464439734 108.88084868808369 55.98227302531964 C 0.0 **** -0.24
4332 H 98.26262057817453 107.9491385368284 55.76625260592792 H 0.0 **** 0.06
4333 H 96.66618160992144 108.69538973052266 56.02210660912462 H 0.0 **** 0.06
4334 H 97.95459515853341 109.60848859261347 55.19829378372012 H 0.0 **** 0.06
4335 H 98.0773458791177 109.27198434112654 56.94213080281216 H 0.0 **** 0.06
4336 C 83.02343809751636 3.878595655356463 121.23156361381506 C 0.0 **** -0.24
4337 H 82.73151157192626 4.100149872308236 120.2050049144358 H 0.0 **** 0.06
4338 H 83.37432007936616 4.791065070582533 121.71424007191357 H 0.0 **** 0.06
4339 H 83.82081859977018 3.1365814381488235 121.23005675587004 H 0.0 **** 0.06
4340 H 82.16393297492397 3.48682013341039 121.77600281547537 H 0.0 **** 0.06
4341 C 43.545326310536964 118.23264698462204 59.41588405036453 C 0.0 **** -0.24
4342 H 43.6964304828215 117.87957003892059 58.395720173449995 H 0.0 **** 0.06
4343 H 44.280289484040935 119.00526788692537 59.64406438261397 H 0.0 **** 0.06
4344 H 43.664567172351894 117.40068492547506 60.11011808249315 H 0.0 **** 0.06
4345 H 42.541145025549184 118.64621974255934 59.512085307542314 H 0.0 **** 0.06
4346 C 99.65458899013424 32.16805568201346 84.13573602044386 C 0.0 **** -0.24
4347 H 99.70108956722274 31.084619018473695 84.24608467490262 H 0.0 **** 0.06
4348 H 100.27578893954484 32.47418026028919 83.29359082278387 H 0.0 **** 0.06
4349 H 100.01766070030541 32.64180771051498 85.04742129540182 H 0.0 **** 0.06
4350 H 98.62299700714414 32.47021697760323 83.95523765753674 H 0.0 **** 0.06
4351 C 67.21893231537763 63.274845088721065 27.77915512194172 C 0.0 **** -0.24
4352 H 66.46828936115972 63.45515908699525 27.009457022863288 H 0.0 **** 0.06
4353 H 68.21092007686889 63.28716639645211 27.328804664429747 H 0.0 **** 0.06
4354 H 67.0399113617577 62.30303067103608 28.240228237806875 H 0.0 **** 0.06
4355 H 67.15349166942858 64.05514736259062 28.537973321551156 H 0.0 **** 0.06
4356 C 6.706414992436521 28.99744398127136 119.37354377388847 C 0.0 **** -0.24
4357 H 6.0498040511932345 28.57341289610087 118.61376759289325 H 0.0 **** 0.06
4358 H 6.617062221673592 28.41849352086357 120.2932435219988 H 0.0 **** 0.06
4359 H 6.420534521089053 30.031319258478213 119.56550564897307 H 0.0 **** 0.06
4360 H 7.737516633840215 28.96451533064664 119.02110334119833 H 0.0 **** 0.06
4361 C 30.794206184318938 33.801946669188254 72.09406271752445 C 0.0 **** -0.24
4362 H 31.793929894561444 33.37366048649753 72.02412303345463 H 0.0 **** 0.06
4363 H 30.257613853317565 33.33511382625389 72.9212458938303 H 0.0 **** 0.06
4364 H 30.256037334793376 33.622693798792 71.16332385884124 H 0.0 **** 0.06
4365 H 30.870278948196187 34.87487308072528 72.26997453648363 H 0.0 **** 0.06
4366 C 110.01338652541233 3.0082051751221 8.811635325626554 C 0.0 **** -0.24
4367 H 109.21407482113085 2.768660177347897 9.51299837533594 H 0.0 **** 0.06
4368 H 110.15296733880513 2.1771586720189475 8.121227502703562 H 0.0 **** 0.06
4369 H 110.93798661337868 3.1841596038093485 9.361094901868682 H 0.0 **** 0.06
4370 H 109.74737733612125 3.905613439138847 8.251366859794842 H 0.0 **** 0.06
4371 C 3.607536068167633 41.63851923852488 120.73625813992139 C 0.0 **** -0.24
4372 H 2.8449080337317127 41.17146970015048 120.11228747305034 H 0.0 **** 0.06
4373 H 3.75520009796179 42.671026401044 120.41920697815786 H 0.0 **** 0.06
4374 H 4.543773739015137 41.089672339834976 120.63618707961959 H 0.0 **** 0.06
4375 H 3.2850259971596643 41.620072842315786 121.77767023781647 H 0.0 **** 0.06
4376 C 88.36504119186296 92.3922377394872 3.358303568332744 C 0.0 **** -0.24
4377 H 89.1601931403377 92.4956965658507 2.6199020616760293 H 0.0 **** 0.06
4378 H 87.48112894173207 92.93346599662326 3.0184089832458056 H 0.0 **** 0.06
4379 H 88.69891761451174 92.80293506115541 4.311627449237861 H 0.0 **** 0.06
4380 H 88.12024538437223 91.33779402985542 3.482269497652908 H 0.0 **** 0.06
4381 C 35.471240218260846 117.81997527675739 100.53737257208903 C 0.0 **** -0.24
4382 H 36.50498123835371 118.11421577315082 100.72201879869951 H 0.0 **** 0.06
4383 H 35.36558035917801 117.50017565635363 99.50017809291242 H 0.0 **** 0.06
4384 H 34.81384600259588 118.66919423409843 100.72443713223961 H 0.0 **** 0.06
4385 H 35.2031805939165 116.99843422660592 101.201241110805 H 0.0 **** 0.06
4386 C 35.387948860076136 35.438881041721345 10.077669318293289 C 0.0 **** -0.24
4387 H 34.510965966179214 34.91786395924968 9.69504905105785 H 0.0 **** 0.06
4388 H 35.34259613310036 35.474211181640996 11.16663400952605 H 0.0 **** 0.06
4389 H 35.40823447751217 36.45477291765073 9.681806491214914 H 0.0 **** 0.06
4390 H 36.289073268822676 34.91065623373319 9.768293484409085 H 0.0 **** 0.06
4391 C 82.96421891409207 110.59741934418525 60.65446596468445 C 0.0 **** -0.24
4392 H 82.57745834708803 111.02273009218845 59.72864625575596 H 0.0 **** 0.06
4393 H 83.8047185981298 109.94041265362557 60.429755826792814 H 0.0 **** 0.06
4394 H 82.17790432597255 110.02596601350427 61.148033192409684 H 0.0 **** 0.06
4395 H 83.29580117285406 111.40191540043458 61.31187565400555 H 0.0 **** 0.06
4396 C 84.95560810449913 104.86254183865657 35.06439288773478 C 0.0 **** -0.24
4397 H 85.32424365357514 105.66477868291057 34.42466087985457 H 0.0 **** 0.06
4398 H 85.61719973277471 104.75183099312272 35.92469043209752 H 0.0 **** 0.06
4399 H 84.93350759364432 103.92980646661059 34.50086523162804 H 0.0 **** 0.06
4400 H 83.9498866223054 105.10401987662681 35.40773348028145 H 0.0 **** 0.06
4401 C 108.6784651311965 25.39766759696056 94.53718388009705 C 0.0 **** -0.24
4402 H 107.96874429507676 26.21348052348165 94.39567134223068 H 0.0 **** 0.06
4403 H 108.13897717283902 24.451307460232556 94.58569587219327 H 0.0 **** 0.06
4404 H 109.22761476091631 25.551859812338236 95.46587950196695 H 0.0 **** 0.06
4405 H 109.37696538118138 25.37526751280666 93.70134675103216 H 0.0 **** 0.06
4406 C 114.94447405934999 36.4094690191242 34.499091464195004 C 0.0 **** -0.24
4407 H 113.88984639376035 36.52994352344115 34.748385576362836 H 0.0 **** 0.06
4408 H 115.50911565655002 37.25411387464782 34.893952284082175 H 0.0 **** 0.06
4409 H 115.05949649241565 36.37050669258784 33.415526999892435 H 0.0 **** 0.06
4410 H 115.31795632299291 35.48457749166631 34.938049050045464 H 0.0 **** 0.06
4411 C 27.784655292014634 53.28195114138962 36.92118598927152 C 0.0 **** -0.24
4412 H 26.76337402367966 53.17055644360351 36.558231627232146 H 0.0 **** 0.06
4413 H 27.76898525867162 53.50799689166495 37.9871113462284 H 0.0 **** 0.06
4414 H 28.2748135281403 54.094425012218885 36.38375571193353 H 0.0 **** 0.06
4415 H 28.333031289476196 52.354336561272746 36.754143658858084 H 0.0 **** 0.06
4416 C 100.73701789538725 34.684410721283484 67.68052595317863 C 0.0 **** -0.24
4417 H 101.80930329352935 34.79987473108247 67.51791507350359 H 0.0 **** 0.06
4418 H 100.3579020780746 35.54936629196919 68.22526737416652 H 0.0 **** 0.06
4419 H 100.55305968815972 33.77965014380487 68.25841496426324 H 0.0 **** 0.06
4420 H 100.23037567579476 34.61093856132811 66.71774628796919 H 0.0 **** 0.06
4421 C 10.58446036235739 52.04962529952604 73.43959160194055 C 0.0 **** -0.24
4422 H 11.436110530378585 51.88115336199636 72.77957160655572 H 0.0 **** 0.06
4423 H 9.805876561162023 51.318278125365 73.22039588924807 H 0.0 **** 0.06
4424 H 10.19425662926821 53.05408324538764 73.2802858403561 H 0.0 **** 0.06
4425 H 10.90291822615049 51.94253691991307 74.47699212808672 H 0.0 **** 0.06
4426 C 32.53627474398003 65.48166293644363 40.09278125137118 C 0.0 **** -0.24
4427 H 32.48185932106112 65.00225857978376 39.11532406059944 H 0.0 **** 0.06
4428 H 33.3726236902214 65.06414220151379 40.6550135037862 H 0.0 **** 0.06
4429 H 31.607884772696963 65.30356954176071 40.63666543692361 H 0.0 **** 0.06
4430 H 32.68190651718534 66.55382482239946 39.964522312980655 H 0.0 **** 0.06
4431 C 105.3882366342487 52.701890339971726 78.92748563369065 C 0.0 **** -0.24
4432 H 104.41285567444291 53.159909662954306 79.09163011768607 H 0.0 **** 0.06
4433 H 105.28794447785947 51.879683659828515 78.21948440090276 H 0.0 **** 0.06
4434 H 105.77444106751324 52.32288234343059 79.8729115279358 H 0.0 **** 0.06
4435 H 106.07600999291148 53.446538710718016 78.5260385349849 H 0.0 **** 0.06
4436 C 2.5917030752016625 104.64996764998358 83.08464432213742 C 0.0 **** -0.24
4437 H 2.374277096667674 105.69513575679582 82.86528689036746 H 0.0 **** 0.06
4438 H 1.8208143215166608 104.248668549495 83.74319176932613 H 0.0 **** 0.06
4439 H 3.5633128776507927 104.57684393257404 83.57475402935506 H 0.0 **** 0.06
4440 H 2.6101175122290208 104.07996866534725 82.15606629023148 H 0.0 **** 0.06
4441 C 84.05236373323785 25.554380887355308 53.35229217381117 C 0.0 **** -0.24
4442 H 84.62176850789541 24.752176374986135 53.82245096725749 H 0.0 **** 0.06
4443 H 84.2887022560279 25.591070313451127 52.288788000988944 H 0.0 **** 0.06
4444 H 84.31271263039301 26.505102160717456 53.81735198912899 H 0.0 **** 0.06
4445 H 82.98620593021596 25.366199895088414 53.480960792239266 H 0.0 **** 0.06
4446 C 80.73916332368137 36.68012917001897 109.94579831897198 C 0.0 **** -0.24
4447 H 81.26923885419143 36.516742773906486 109.00824465779684 H 0.0 **** 0.06
4448 H 80.19841302939884 37.62536119494342 109.89785385790933 H 0.0 **** 0.06
4449 H 81.45588874819708 36.71295628134189 110.7668063676987 H 0.0 **** 0.06
4450 H 80.03356443096007 35.86572523034249 110.11113910255716 H 0.0 **** 0.06
4451 C 73.78608443043922 61.452294417802904 24.64527642742175 C 0.0 **** -0.24
4452 H 73.21692634206428 60.71767321212229 25.21556663844197 H 0.0 **** 0.06
4453 H 74.10337244289659 62.2583123243121 25.307254981221007 H 0.0 **** 0.06
4454 H 73.15956316316854 61.85877555318979 23.850644199135132 H 0.0 **** 0.06
4455 H 74.66156752640362 60.97298667687346 24.20834564076145 H 0.0 **** 0.06
4456 C 9.51825441585433 9.137541623005106 82.28067043034144 C 0.0 **** -0.24
4457 H 10.563235416191247 9.267545111174087 82.5613497970399 H 0.0 **** 0.06
4458 H 8.937190040692315 8.865111077031898 83.16246008285654 H 0.0 **** 0.06
4459 H 9.43864289805191 8.346865928287954 81.534459941172 H 0.0 **** 0.06
4460 H 9.134952571324561 10.069844761799544 81.86557562214708 H 0.0 **** 0.06
4461 C 29.96640854939409 41.52407047318022 70.59929734717988 C 0.0 **** -0.24
4462 H 29.065429382954335 41.19374239958577 70.08358525285033 H 0.0 **** 0.06
4463 H 30.23531248520075 42.52420401640924 70.25828159863408 H 0.0 **** 0.06
4464 H 30.78311603660744 40.83475986398051 70.38285348862254 H 0.0 **** 0.06
4465 H 29.784102161521986 41.54303754318224 71.6739860394494 H 0.0 **** 0.06
4466 C 25.57519301852136 102.90631455641756 19.566145304147426 C 0.0 **** -0.24
4467 H 26.327411744938615 102.40530231447858 20.176888251404563 H 0.0 **** 0.06
4468 H 24.895176012681702 103.46135220643109 20.212338932544213 H 0.0 **** 0.06
4469 H 25.014224728560578 102.16496433869051 18.998794042523258 H 0.0 **** 0.06
4470 H 26.066990007829588 103.59465361253257 18.87850643263323 H 0.0 **** 0.06
4471 C 11.167675908815 28.122568321264907 80.02187036224635 C 0.0 **** -0.24
4472 H 11.010428487911838 27.624383925508084 79.0652420735347 H 0.0 **** 0.06
4473 H 10.845605677123274 27.466397455689872 80.83088873594613 H 0.0 **** 0.06
4474 H 10.588648100539388 29.04563214548307 80.04999692028133 H 0.0 **** 0.06
4475 H 12.22620088427658 28.354824393916374 80.14116056526083 H 0.0 **** 0.06
4476 C 73.03093428761258 3.6879684089982767 92.38716139699943 C 0.0 **** -0.24
4477 H 72.82415585671623 3.454325474878285 91.3427142727748 H 0.0 **** 0.06
4478 H 73.11281060958913 2.7619140998378953 92.95679272524166 H 0.0 **** 0.06
4479 H 72.22016485041007 4.293201178061217 92.79104042594699 H 0.0 **** 0.06
4480 H 73.96756338042314 4.241850965737969 92.45616302716567 H 0.0 **** 0.06
4481 C 12.304047358669152 88.35784613596007 95.73978724513103 C 0.0 **** -0.24
4482 H 11.312437010628674 88.29098017959714 96.18684872205304 H 0.0 **** 0.06
4483 H 12.812365297854608 89.24666144743898 96.11495440935013 H 0.0 **** 0.06
4484 H 12.209844935036145 88.42329819232287 94.65550771439669 H 0.0 **** 0.06
4485 H 12.881479987842734 87.47127740645541 96.00128783740433 H 0.0 **** 0.06
4486 C 95.08449954073521 35.90949582750616 89.04225419414115 C 0.0 **** -0.24
4487 H 94.01528613521779 36.05682662776121 89.19648613558184 H 0.0 **** 0.06
4488 H 95.62935899095635 36.769905588416464 89.43213547372028 H 0.0 **** 0.06
4489 H 95.28635328217419 35.803644226318625 87.97598280362871 H 0.0 **** 0.06
4490 H 95.40554841892208 35.008247997316005 89.56371756556638 H 0.0 **** 0.06
4491 C 50.662424259715664 84.00483544458612 121.7069304010956 C 0.0 **** -0.24
4492 H 49.76897184747446 83.59136984478766 121.23887364780714 H 0.0 **** 0.06
4493 H 51.46909588799181 84.04602681221292 120.97361982635714 H 0.0 **** 0.06
4494 H 50.961154243826826 83.37155908853944 122.54126935369804 H 0.0 **** 0.06
4495 H 50.449331345625666 85.00957097032355 122.0704905823442 H 0.0 **** 0.06
4496 C 9.923438474284517 54.23229760220008 58.082272453908615 C 0.0 **** -0.24
4497 H 9.447206894296848 54.36090020144053 57.11015826509171 H 0.0 **** 0.06
4498 H 10.83876337762582 54.823533765332485 58.11918160529669 H 0.0 **** 0.06
4499 H 10.163614801203362 53.179308844792416 58.23143737024148 H 0.0 **** 0.06
4500 H 9.243867962685435 54.56496928309534 58.86701611468079 H 0.0 **** 0.06
4501 C 80.5831726092816 71.64913366312913 66.00633396292642 C 0.0 **** -0.24
4502 H 80.12387370183725 70.66185272959106 66.06573145869248 H 0.0 **** 0.06
4503 H 81.63483789120613 71.54477396320056 65.74067199428356 H 0.0 **** 0.06
4504 H 80.49965618950725 72.14586037654746 66.97317352074396 H 0.0 **** 0.06
4505 H 80.07301266605785 72.24190609462278 65.24768202995023 H 0.0 **** 0.06
4506 C 4.156240123428757 86.56134066569564 47.21216165072177 C 0.0 **** -0.24
4507 H 3.9789388891358595 85.94686857110497 46.32999080658651 H 0.0 **** 0.06
4508 H 4.674245832802484 87.47537961679285 46.91981412684635 H 0.0 **** 0.06
4509 H 4.767842903004283 86.0079376492751 47.92372204074897 H 0.0 **** 0.06
4510 H 3.202441288058621 86.81651199542551 47.674123241807735 H 0.0 **** 0.06
4511 C 122.43644110371437 22.48392332241059 4.619877393791427 C 0.0 **** -0.24
4512 H 123.24734751084323 22.899797669902796 4.022711252031968 H 0.0 **** 0.06
4513 H 121.71739813805702 23.269616598237405 4.85271734731171 H 0.0 **** 0.06
4514 H 122.84047376996429 22.07478259419645 5.546603714672045 H 0.0 **** 0.06
4515 H 121.94128184059477 21.6913289948929 4.058672726643039 H 0.0 **** 0.06
4516 C 13.6183282894971 113.04045788853944 37.4414791862514 C 0.0 **** -0.24
4517 H 14.456221242612074 112.624910407622 38.001274523898815 H 0.0 **** 0.06
4518 H 13.391390825742647 112.39439486360405 36.59433280081936 H 0.0 **** 0.06
4519 H 13.880832053223628 114.03544618442297 37.08047190473155 H 0.0 **** 0.06
4520 H 12.746062210881362 113.1089082546554 38.0909486023038 H 0.0 **** 0.06
4521 C 106.50443055245262 16.797333446308397 43.66798211365395 C 0.0 **** -0.24
4522 H 105.4903057556057 16.465085047155142 43.890636653457236 H 0.0 **** 0.06
4523 H 107.21558005937214 16.037983621346473 43.99386150206209 H 0.0 **** 0.06
4524 H 106.70338611690897 17.73178219747348 44.19196808813314 H 0.0 **** 0.06
4525 H 106.60680411022378 16.954125830177915 42.593683741602035 H 0.0 **** 0.06
4526 C 59.345877346297414 80.52994921161849 30.582407193617712 C 0.0 **** -0.24
4527 H 59.861393434226216 81.48297978831965 30.701554239874326 H 0.0 **** 0.06
4528 H 60.002234522055176 79.82284537706141 30.075410606015055 H 0.0 **** 0.06
4529 H 58.44329155076008 80.67730764110249 29.990402604031544 H 0.0 **** 0.06
4530 H 59.07694047791199 80.13753529978936 31.563318725842294 H 0.0 **** 0.06
4531 C 117.7074533174499 1.3473792893895258 105.36726397563342 C 0.0 **** -0.24
4532 H 117.61828058722915 1.649006820299535 106.4106599494979 H 0.0 **** 0.06
4533 H 117.52180103204478 2.2070903407172917 104.72329015961697 H 0.0 **** 0.06
4534 H 116.97893833137948 0.566755726151726 105.1504256894259 H 0.0 **** 0.06
4535 H 118.71293506589802 0.9660240357100705 105.18462266951448 H 0.0 **** 0.06
4536 C 34.87883641449386 85.50991736743765 99.5766098348511 C 0.0 **** -0.24
4537 H 35.57831020009331 84.81553617992921 100.04329857632447 H 0.0 **** 0.06
4538 H 34.05712434379524 84.95037317826467 99.12779050209602 H 0.0 **** 0.06
4539 H 35.39446224710471 86.0818546380793 98.80549774174509 H 0.0 **** 0.06
4540 H 34.48542262616837 86.19048337462348 100.33229738969956 H 0.0 **** 0.06
4541 C 81.39780524886237 90.98818931169205 42.309369635587075 C 0.0 **** -0.24
4542 H 80.3352097127347 91.14063316714822 42.11979184946392 H 0.0 **** 0.06
4543 H 81.52771397923613 90.14942014721248 42.99304874473614 H 0.0 **** 0.06
4544 H 81.82021285072585 91.88907004713764 42.75427056735617 H 0.0 **** 0.06
4545 H 81.90723030815718 90.7738079559582 41.369877286855285 H 0.0 **** 0.06
4546 C 56.031882214376026 92.53429976482238 13.839090710293561 C 0.0 **** -0.24
4547 H 56.96528533158994 92.23785995894178 14.318359143544953 H 0.0 **** 0.06
4548 H 55.35425024435989 91.68166649087414 13.80528984577009 H 0.0 **** 0.06
4549 H 56.237280399127656 92.8763240325705 12.824839211680029 H 0.0 **** 0.06
4550 H 55.57256689589963 93.34221569540165 14.408775205481874 H 0.0 **** 0.06
4551 C 11.018688131980554 3.0482752374847593 29.00959354582895 C 0.0 **** -0.24
4552 H 11.672573065713266 3.320160356078702 28.18130309301992 H 0.0 **** 0.06
4553 H 10.093035167982208 2.6252501382364812 28.617175939349607 H 0.0 **** 0.06
4554 H 10.790450771641531 3.936723097626029 29.599052009411736 H 0.0 **** 0.06
4555 H 11.516613513693386 2.311192090582381 29.640053624854488 H 0.0 **** 0.06
4556 C 1.5745419605725601 4.234214721591002 20.117151576326535 C 0.0 **** -0.24
4557 H 1.4019868182907942 5.004055751256288 19.364499142377923 H 0.0 **** 0.06
4558 H 1.8636346685143792 4.704713362783451 21.05688375120573 H 0.0 **** 0.06
4559 H 2.37080998088706 3.5707417858652946 19.78094481494506 H 0.0 **** 0.06
4560 H 0.6600175980214829 3.6594355171564246 20.263692324953922 H 0.0 **** 0.06
4561 C 61.141504160273286 18.106105972418433 68.83828960494574 C 0.0 **** -0.24
4562 H 61.80028980732786 17.770279027451338 68.03705998787285 H 0.0 **** 0.06
4563 H 61.3237660986849 17.50880705763204 69.73192809316865 H 0.0 **** 0.06
4564 H 60.1032042649673 17.988748190773606 68.52773426731792 H 0.0 **** 0.06
4565 H 61.34065065561799 19.155627756402183 69.05573809585098 H 0.0 **** 0.06
4566 C 86.70129176957627 28.049350155187895 24.498126081422924 C 0.0 **** -0.24
4567 H 86.03508414042932 28.848078913429482 24.822859583568487 H 0.0 **** 0.06
4568 H 87.1751987622554 28.333195208669352 23.557626551556297 H 0.0 **** 0.06
4569 H 86.12833812758262 27.133500286474742 24.355090286633555 H 0.0 **** 0.06
4570 H 87.4667052731107 27.88470395047146 25.25611677553863 H 0.0 **** 0.06
4571 C 90.41209991920749 52.70924879083026 54.73559989624181 C 0.0 **** -0.24
4572 H 90.41684477902538 53.72794980885192 54.34837279237138 H 0.0 **** 0.06
4573 H 90.43094990443043 52.73602617597379 55.825783303118726 H 0.0 **** 0.06
4574 H 91.29021661594086 52.17764485250663 54.36999299329969 H 0.0 **** 0.06
4575 H 89.50982420409787 52.19753095452339 54.3992658758043 H 0.0 **** 0.06
4576 C 26.192389955921698 25.670629709594095 107.20811425685741 C 0.0 **** -0.24
4577 H 26.449483041344536 24.611692068660773 107.20755691379253 H 0.0 **** 0.06
4578 H 25.112176212233422 25.782965078079428 107.3022161965992 H 0.0 **** 0.06
4579 H 26.5249002152592 26.124856898105236 106.27476827963773 H 0.0 **** 0.06
4580 H 26.683699993561547 26.162990199972683 108.0466866524427 H 0.0 **** 0.06
4581 C 36.42048663659432 107.34832444539859 106.3246288328562 C 0.0 **** -0.24
4582 H 35.71768015536604 107.95267590296157 106.89720235167309 H 0.0 **** 0.06
4583 H 37.26880732611011 107.96523224880241 106.02502742481653 H 0.0 **** 0.06
4584 H 35.924127149766974 106.95751143354971 105.43617647152305 H 0.0 **** 0.06
4585 H 36.77238969351089 106.51947865217937 106.93954351425515 H 0.0 **** 0.06
4586 C 89.30549297467289 89.79728306711627 82.8545515719702 C 0.0 **** -0.24
4587 H 89.79240026804945 88.82339197350592 82.8123317745235 H 0.0 **** 0.06
4588 H 88.85385997920781 89.9341769186093 83.83749962975182 H 0.0 **** 0.06
4589 H 88.53157574530783 89.85042266399239 82.08799008975188 H 0.0 **** 0.06
4590 H 90.04281827440272 90.58004105388181 82.68141183841306 H 0.0 **** 0.06
4591 C 73.66630815329745 31.81276320301771 48.659143016586206 C 0.0 **** -0.24
4592 H 74.50253818299873 32.418839628468334 49.00808118846363 H 0.0 **** 0.06
4593 H 73.54212738206328 30.95328010868866 49.317033593893996 H 0.0 **** 0.06
4594 H 73.86702910511204 31.46876752900758 47.643994129403985 H 0.0 **** 0.06
4595 H 72.75563587828398 32.412067338596216 48.66647201728886 H 0.0 **** 0.06
4596 C 105.06044877461989 112.02728324023019 43.9895663651796 C 0.0 **** -0.24
4597 H 105.08807917657751 111.36319471066003 43.12581518545903 H 0.0 **** 0.06
4598 H 105.74365269586798 112.86111825488854 43.82891243325312 H 0.0 **** 0.06
4599 H 105.36197793774824 111.47685553084773 44.880712046692565 H 0.0 **** 0.06
4600 H 104.04766943191194 112.4070879207672 44.1225833284486 H 0.0 **** 0.06
4601 C 109.76299226472844 101.02608226648869 47.67270450826524 C 0.0 **** -0.24
4602 H 108.7887990817789 101.40560020850319 47.36413698873608 H 0.0 **** 0.06
4603 H 109.63660591031874 100.06310308804507 48.16810611815782 H 0.0 **** 0.06
4604 H 110.2254679162665 101.73162551100404 48.3630030927111 H 0.0 **** 0.06
4605 H 110.39954266454774 100.90403183678768 46.79746551189308 H 0.0 **** 0.06
4606 C 54.77239368916389 41.56877014777396 50.124080847319476 C 0.0 **** -0.24
4607 H 54.81469384544252 42.35227627318346 50.88122483881838 H 0.0 **** 0.06
4608 H 55.44481529297781 40.75753734673074 50.40179584128583 H 0.0 **** 0.06
4609 H 55.074753834791835 41.97919941212194 49.160777014068785 H 0.0 **** 0.06
4610 H 53.752884800628266 41.18849261611044 50.05300477825668 H 0.0 **** 0.06
4611 C 12.131396551609797 66.23418978060934 37.127715439587405 C 0.0 **** -0.24
4612 H 11.724173486906537 67.04785757874083 37.72777477906175 H 0.0 **** 0.06
4613 H 11.937757333740876 66.42938280858675 36.07236538663841 H 0.0 **** 0.06
4614 H 11.655721289860509 65.29699045369014 37.41777341959437 H 0.0 **** 0.06
4615 H 13.205596647762974 66.16305570091393 37.29345660074148 H 0.0 **** 0.06
4616 C 122.01910673213678 79.73155998030151 31.237588277727767 C 0.0 **** -0.24
4617 H 122.83729670962217 79.07578951421829 31.53493886826351 H 0.0 **** 0.06
4618 H 121.30553082062443 79.81458839946976 32.05806856045777 H 0.0 **** 0.06
4619 H 121.5213619736592 79.31580492651028 30.362617471041602 H 0.0 **** 0.06
4620 H 122.41349036777342 80.71873870844223 30.997114113126088 H 0.0 **** 0.06
4621 C 75.58803371012073 54.34404592262666 16.51988580923838 C 0.0 **** -0.24
4622 H 74.95993785025735 54.25156719115114 15.633983787715422 H 0.0 **** 0.06
4623 H 75.98810168420877 55.35725684292021 16.57740519359301 H 0.0 **** 0.06
4624 H 76.41010162129837 53.63060577598549 16.458831252130132 H 0.0 **** 0.06
4625 H 74.99269161790781 54.13722176255652 17.409615953476468 H 0.0 **** 0.06
4626 C 6.1970925617184776 14.117867147148328 119.4211339523363 C 0.0 **** -0.24
4627 H 6.266770465801329 14.91311628657316 118.678881346197 H 0.0 **** 0.06
4628 H 7.165058108167727 13.990729690979876 119.90848807227748 H 0.0 **** 0.06
4629 H 5.911773440142582 13.186704049903586 118.93176149068191 H 0.0 **** 0.06
4630 H 5.446262487851982 14.381986764460454 120.16668021258157 H 0.0 **** 0.06
4631 C 117.78138388762689 102.19669782007117 5.160891675950495 C 0.0 **** -0.24
4632 H 116.69176752357762 102.1695861334918 5.119789935949768 H 0.0 **** 0.06
4633 H 118.12827403409267 103.19992930316522 4.912958304944851 H 0.0 **** 0.06
4634 H 118.18958938289643 101.48309232130805 4.445683625750036 H 0.0 **** 0.06
4635 H 118.11303638510684 101.9350587144504 6.165046372481015 H 0.0 **** 0.06
4636 C 47.44324050862867 59.222391573809894 63.55332882880046 C 0.0 **** -0.24
4637 H 47.803890785825075 59.25237779270375 64.5815308210941 H 0.0 **** 0.06
4638 H 47.41328448416261 58.18901059581907 63.209086945742484 H 0.0 **** 0.06
4639 H 48.1133451243624 59.79884294663898 62.91614462825524 H 0.0 **** 0.06
4640 H 46.44213712227143 59.65050660811513 63.50779174080614 H 0.0 **** 0.06
4641 C 104.13088531605717 21.68630275291048 73.97759428646245 C 0.0 **** -0.24
4642 H 104.00521905902895 20.75582921094228 73.42245538448464 H 0.0 **** 0.06
4643 H 104.59291206595395 21.4735163043985 74.9416250633642 H 0.0 **** 0.06
4644 H 103.15687779468959 22.148421731900015 74.13512672355611 H 0.0 **** 0.06
4645 H 104.76762665083677 22.36415369321257 73.40963507062511 H 0.0 **** 0.06
4646 C 94.87517561536353 72.26854309256964 101.3398240199308 C 0.0 **** -0.24
4647 H 94.9840455879162 71.5281887545325 102.13250171243024 H 0.0 **** 0.06
4648 H 95.2821780817304 73.22245406860256 101.67466719195212 H 0.0 **** 0.06
4649 H 93.81828015331243 72.38826392495798 101.09820629527516 H 0.0 **** 0.06
4650 H 95.41407686349265 71.93317090538125 100.45358811391154 H 0.0 **** 0.06
4651 C 25.86891578555447 83.79760876064242 4.01262905499263 C 0.0 **** -0.24
4652 H 24.802131718079366 83.65665361604354 4.18849710210884 H 0.0 **** 0.06
4653 H 26.02432427676964 84.7129825734024 3.44043836245001 H 0.0 **** 0.06
4654 H 26.259350815926318 82.94765237933223 3.452073240718846 H 0.0 **** 0.06
4655 H 26.387761222890497 83.87328136098532 4.967142587162215 H 0.0 **** 0.06
4656 C 119.67974283278728 58.160408944951705 48.97618814569478 C 0.0 **** -0.24
4657 H 120.147776759638 57.24269901271945 48.62051437218136 H 0.0 **** 0.06
4658 H 119.03864319615882 58.56815445753045 48.193899806695285 H 0.0 **** 0.06
4659 H 120.45221057540974 58.887676148750295 49.22960524644887 H 0.0 **** 0.06
4660 H 119.08083679884174 57.94435144355297 49.86118412008855 H 0.0 **** 0.06
4661 C 34.16754508282892 101.82615815911316 91.60846609440847 C 0.0 **** -0.24
4662 H 34.22710065253949 100.744589265375 91.7263725969319 H 0.0 **** 0.06
4663 H 35.13598565619691 102.27066750141472 91.84134915200121 H 0.0 **** 0.06
4664 H 33.41255071180791 102.22417020749052 92.2856344457901 H 0.0 **** 0.06
4665 H 33.89664386830211 102.06446948086392 90.58029376869746 H 0.0 **** 0.06
4666 C 77.15641175876573 31.451548317275922 1.7964319381709402 C 0.0 **** -0.24
4667 H 77.76863852040174 31.979230437363213 2.5275503177741996 H 0.0 **** 0.06
4668 H 76.70108194202408 32.17180235122248 1.115691098030993 H 0.0 **** 0.06
4669 H 76.3739326855125 30.89459173131523 2.312014134668516 H 0.0 **** 0.06
4670 H 77.78135159593648 30.7613947183371 1.229520704262967 H 0.0 **** 0.06
4671 C 26.963861156339476 49.666032222189955 20.742824465169775 C 0.0 **** -0.24
4672 H 27.57165438263047 50.20624274664979 21.467583062293926 H 0.0 **** 0.06
4673 H 25.9362931988515 50.02678239199827 20.789510042998046 H 0.0 **** 0.06
4674 H 26.986941687841693 48.600653968702346 20.971633522831837 H 0.0 **** 0.06
4675 H 27.36157666386049 49.83046992176841 19.740582061119028 H 0.0 **** 0.06
4676 C 29.47653382364021 31.962576885562214 68.33908873733427 C 0.0 **** -0.24
4677 H 29.46020831979331 31.373984211070535 67.42260404578093 H 0.0 **** 0.06
4678 H 29.873053182711573 31.356193124062088 69.15331367494622 H 0.0 **** 0.06
4679 H 28.463969274331532 32.282591020180746 68.58401340527166 H 0.0 **** 0.06
4680 H 30.109195159159825 32.839205857890306 68.19679517555934 H 0.0 **** 0.06
4681 C 109.6079521191437 119.45260702009008 8.692230962484814 C 0.0 **** -0.24
4682 H 109.71801150614922 118.68110938010703 7.9300955048183255 H 0.0 **** 0.06
4683 H 108.97330568807189 120.25323719493207 8.310143992165877 H 0.0 **** 0.06
4684 H 110.58857549853715 119.85480643349352 8.945853767028382 H 0.0 **** 0.06
4685 H 109.15140758443991 119.02000278437329 9.582479688004355 H 0.0 **** 0.06
4686 C 52.40345695636893 109.90587800107306 8.941499505175937 C 0.0 **** -0.24
4687 H 52.79154692175314 108.88752808899164 8.938543193782404 H 0.0 **** 0.06
4688 H 51.34962149578163 109.89191016611292 9.221643957773747 H 0.0 **** 0.06
4689 H 52.509368513246585 110.33765765382691 7.945482290617992 H 0.0 **** 0.06
4690 H 52.96286545983651 110.50633103823776 9.658134940277343 H 0.0 **** 0.06
4691 C 101.22828844968691 66.65832827014069 26.632139883615068 C 0.0 **** -0.24
4692 H 101.82992701057998 67.47551859872061 27.0304628132628 H 0.0 **** 0.06
4693 H 101.88488945042897 65.86103565727817 26.283451254463188 H 0.0 **** 0.06
4694 H 100.624897719905 67.02273800706007 25.801424386855956 H 0.0 **** 0.06
4695 H 100.57407286551282 66.27391781025776 27.415363196868157 H 0.0 **** 0.06
4696 C 27.701655729305088 36.931000182705446 75.0901429566801 C 0.0 **** -0.24
4697 H 27.013049549839764 36.55368927049879 75.84654838171457 H 0.0 **** 0.06
4698 H 28.679665392346777 36.46887683366795 75.22757761577941 H 0.0 **** 0.06
4699 H 27.792250874704138 38.012141328010784 75.18894276506921 H 0.0 **** 0.06
4700 H 27.319793433587762 36.68669774321586 74.09839213703526 H 0.0 **** 0.06
4701 C 118.5317846784589 25.360196618182442 21.84058426782991 C 0.0 **** -0.24
4702 H 118.40210976657076 26.40229559153306 21.548362981201365 H 0.0 **** 0.06
4703 H 119.11473238782398 25.312000463307157 22.76065451519065 H 0.0 **** 0.06
4704 H 119.05604408348734 24.822985348130146 21.049668149514048 H 0.0 **** 0.06
4705 H 117.55507684708368 24.90485216770128 22.004362696362364 H 0.0 **** 0.06
4706 C 80.68429436065551 67.70916552692128 43.249617890207645 C 0.0 **** -0.24
4707 H 81.72469894821293 67.5310286652821 43.52108366851746 H 0.0 **** 0.06
4708 H 80.0954226761562 67.86606697501907 44.153775093150955 H 0.0 **** 0.06
4709 H 80.29760933261358 66.84562541594403 42.70815199822482 H 0.0 **** 0.06
4710 H 80.62077165191266 68.59366268966767 42.61586891905344 H 0.0 **** 0.06
4711 C 93.8745151156968 81.3530208811284 35.264376398786624 C 0.0 **** -0.24
4712 H 93.58209623406776 81.99414415081819 36.09564605990556 H 0.0 **** 0.06
4713 H 93.42724568291902 81.7249713653793 34.342930260840035 H 0.0 **** 0.06
4714 H 93.52903937271583 80.33601591830816 35.45152494331802 H 0.0 **** 0.06
4715 H 94.96081630928381 81.35517673709208 35.16865147873307 H 0.0 **** 0.06
4716 C 35.62598109703316 82.30287115283039 13.793435179214327 C 0.0 **** -0.24
4717 H 35.22755957177481 81.64385082549654 13.022378374434368 H 0.0 **** 0.06
4718 H 36.68648699937551 82.0941713491944 13.937802093863098 H 0.0 **** 0.06
4719 H 35.09072338546004 82.13252508730878 14.728183056661663 H 0.0 **** 0.06
4720 H 35.498698632171276 83.34032072271444 13.486019121988988 H 0.0 **** 0.06
4721 C 6.549515935555007 43.39437799390646 114.12030315594009 C 0.0 **** -0.24
4722 H 5.790536066234168 43.77171787221326 113.43557820548449 H 0.0 **** 0.06
4723 H 6.421002646141204 42.31879626545677 114.2483168361414 H 0.0 **** 0.06
4724 H 6.447546318858215 43.89044939611313 115.0848312362772 H 0.0 **** 0.06
4725 H 7.540166445876139 43.59510515040182 113.71090314352577 H 0.0 **** 0.06
4726 C 53.2475446688818 50.26459967576028 41.95739825313737 C 0.0 **** -0.24
4727 H 54.16703185181319 50.76006000065465 41.647412033672495 H 0.0 **** 0.06
4728 H 52.94890960369645 50.634797456791205 42.93841347152002 H 0.0 **** 0.06
4729 H 53.41471006441134 49.18859361207501 42.01122055282421 H 0.0 **** 0.06
4730 H 52.45970538322712 50.47452549349089 41.23388491717637 H 0.0 **** 0.06
4731 C 26.19321116186336 28.37346247998667 32.73441298291709 C 0.0 **** -0.24
4732 H 26.582163547323603 28.861581514504905 33.62765367908773 H 0.0 **** 0.06
4733 H 25.11646279439435 28.531775093035492 32.673715366919225 H 0.0 **** 0.06
4734 H 26.402298244694094 27.304899150965667 32.78464375910613 H 0.0 **** 0.06
4735 H 26.673236016903118 28.796706147067624 31.851460478510575 H 0.0 **** 0.06
4736 C 18.871156687782957 31.93543681891549 107.00056564208344 C 0.0 **** -0.24
4737 H 18.02392972892585 32.34508375948707 107.55076924617009 H 0.0 **** 0.06
4738 H 18.535932827877048 31.590635326515184 106.02137202794992 H 0.0 **** 0.06
4739 H 19.29400626711714 31.098174470549367 107.55578282564491 H 0.0 **** 0.06
4740 H 19.629447245903634 32.708252863777574 106.87398788424377 H 0.0 **** 0.06
4741 C 44.1639837352935 4.912994038494087 74.27539086045292 C 0.0 **** -0.24
4742 H 43.88059354053229 5.823796981813871 73.74890337996368 H 0.0 **** 0.06
4743 H 45.21713479233938 4.699556875847538 74.09186546076302 H 0.0 **** 0.06
4744 H 43.55711161341071 4.081979543627986 73.91700667767171 H 0.0 **** 0.06
4745 H 44.0023994763647 5.046262422841895 75.34556386136487 H 0.0 **** 0.06
4746 C 5.337981554927158 68.68628267573862 72.86372656283785 C 0.0 **** -0.24
4747 H 4.8432503829641576 69.49858662965988 72.33075891504387 H 0.0 **** 0.06
4748 H 4.770020336647583 68.44044171215938 73.76113305846809 H 0.0 **** 0.06
4749 H 6.345058930813696 68.99618582517633 73.14410196825713 H 0.0 **** 0.06
4750 H 5.395454336450609 67.81025778094644 72.21771542557715 H 0.0 **** 0.06
4751 C 45.856168881933286 94.4020270916331 106.19289199990553 C 0.0 **** -0.24
4752 H 46.61025397570023 94.13478923934295 106.93250789653467 H 0.0 **** 0.06
4753 H 45.71023603732323 95.48192617545703 106.19697476084764 H 0.0 **** 0.06
4754 H 44.915201877182554 93.9073039357535 106.4375924952669 H 0.0 **** 0.06
4755 H 46.18770649537069 94.08258535739259 105.20482169559824 H 0.0 **** 0.06
4756 C 17.44248883765684 98.92067939157766 48.77298604466023 C 0.0 **** -0.24
4757 H 17.84484385754938 97.93179030343285 48.54907525884687 H 0.0 **** 0.06
4758 H 17.236136195411262 99.44849597641425 47.842530616891054 H 0.0 **** 0.06
4759 H 18.170245522923942 99.48383808045068 49.35840700844426 H 0.0 **** 0.06
4760 H 16.52022107452613 98.81633375723052 49.344312814932664 H 0.0 **** 0.06
4761 C 23.83685428016316 89.38296254034728 88.50436661104408 C 0.0 **** -0.24
4762 H 23.689871115765 90.19904761087054 89.21140918620702 H 0.0 **** 0.06
4763 H 24.871436226932545 89.04279129809657 88.55184147976203 H 0.0 **** 0.06
4764 H 23.61554721542889 89.73210019522756 87.49568270509789 H 0.0 **** 0.06
4765 H 23.171123595303193 88.55902439545525 88.75786536698769 H 0.0 **** 0.06
4766 C 95.67284503254464 40.34422792293173 3.449046747557972 C 0.0 **** -0.24
4767 H 95.05387241325602 40.33517233703616 4.346958824183957 H 0.0 **** 0.06
4768 H 95.16694013088971 40.906107867812466 2.6646245245493247 H 0.0 **** 0.06
4769 H 95.84033252160751 39.32060190656653 3.114375512386019 H 0.0 **** 0.06
4770 H 96.63044120059777 40.81410586931865 3.672893595521913 H 0.0 **** 0.06
4771 C 65.76972994680261 23.155177952041527 104.85866885928624 C 0.0 **** -0.24
4772 H 65.37048482503926 22.95741581478339 103.86428032600926 H 0.0 **** 0.06
4773 H 66.20630314649051 24.15396033664456 104.88157630758178 H 0.0 **** 0.06
4774 H 66.5355834394521 22.417569531429734 105.09571379511632 H 0.0 **** 0.06
4775 H 64.96541539713641 23.092806716308274 105.59119873911717 H 0.0 **** 0.06
4776 C 104.23923050641767 70.07904191187015 63.147751840762815 C 0.0 **** -0.24
4777 H 103.25534756051783 69.64905274328217 62.959763007741834 H 0.0 **** 0.06
4778 H 104.23828189400228 71.13055122491807 62.85731854240452 H 0.0 **** 0.06
4779 H 104.98830634867221 69.54245661879963 62.56521192710756 H 0.0 **** 0.06
4780 H 104.47600810058745 69.99547547720687 64.20900262059033 H 0.0 **** 0.06
4781 C 27.4347324590577 59.80713251645904 120.08711917167156 C 0.0 **** -0.24
4782 H 27.61666510918417 60.62770869297896 120.78230509569315 H 0.0 **** 0.06
4783 H 27.65423048551395 58.85999976447575 120.57961006303236 H 0.0 **** 0.06
4784 H 28.077552178942597 59.92197329936105 119.21479784924722 H 0.0 **** 0.06
4785 H 26.390305092873575 59.82166906187759 119.77492801702701 H 0.0 **** 0.06
4786 C 94.84267230607946 51.227025247595805 120.4607751432408 C 0.0 **** -0.24
4787 H 95.89362511429687 51.44216555620477 120.65699705267693 H 0.0 **** 0.06
4788 H 94.73944975782524 50.80424692582096 119.46065574506669 H 0.0 **** 0.06
4789 H 94.26490839972911 52.149309520690835 120.52659879708449 H 0.0 **** 0.06
4790 H 94.47413254020643 50.51340382418414 121.1978925367185 H 0.0 **** 0.06
4791 C 103.40170388289295 44.324438768894765 104.97960753204535 C 0.0 **** -0.24
4792 H 102.37441857064866 44.250199115772716 105.33788752153902 H 0.0 **** 0.06
4793 H 104.06270945827538 43.78397989581208 105.65839178192132 H 0.0 **** 0.06
4794 H 103.69849689403017 45.37270396427505 104.94179043207987 H 0.0 **** 0.06
4795 H 103.47107855750562 43.89033401351202 103.98228344501482 H 0.0 **** 0.06
4796 C 27.808465922538687 97.11681540702568 72.94681865054409 C 0.0 **** -0.24
4797 H 27.05194284804884 96.4363580649283 72.55635001354545 H 0.0 **** 0.06
4798 H 27.325094346722125 98.01484441294448 73.33316049861625 H 0.0 **** 0.06
4799 H 28.49782632002521 97.38986336411315 72.14893765117716 H 0.0 **** 0.06
4800 H 28.357384628173946 96.62633532046638 73.75036618419733 H 0.0 **** 0.06
4801 C 122.52868768251255 18.80800138711518 86.90501047874994 C 0.0 **** -0.24
4802 H 121.67007176132896 19.4099036270514 87.20125948937755 H 0.0 **** 0.06
4803 H 122.56144354337786 18.73188412257341 85.8178332233116 H 0.0 **** 0.06
4804 H 122.43991761949798 17.81074391728313 87.33641465895903 H 0.0 **** 0.06
4805 H 123.4435633860067 19.27850588168859 87.26458671911206 H 0.0 **** 0.06
4806 C 63.17429394857766 1.2235312395120026 80.42243548007343 C 0.0 **** -0.24
4807 H 63.39201491281265 2.181369987703084 79.94831025444384 H 0.0 **** 0.06
4808 H 63.877643050954084 0.4720859164385409 80.06206322953989 H 0.0 **** 0.06
4809 H 62.15757779850478 0.9193559379875129 80.17387808150048 H 0.0 **** 0.06
4810 H 63.26999829563092 1.3239548614314014 81.50303708971651 H 0.0 **** 0.06
4811 C 57.955973773145985 58.53455754727025 107.90258629454763 C 0.0 **** -0.24
4812 H 57.48927462366541 58.68853500950243 106.93021089662346 H 0.0 **** 0.06
4813 H 57.746545579319985 57.523067699378714 108.25097582077456 H 0.0 **** 0.06
4814 H 57.555599282516766 59.25444404143866 108.61598646067216 H 0.0 **** 0.06
4815 H 59.03363169243039 58.67200748087075 107.81444976084703 H 0.0 **** 0.06
4816 C 76.78758099688935 20.547132212217917 19.51377541343387 C 0.0 **** -0.24
4817 H 77.29087712860212 20.358186642386983 18.565056404080842 H 0.0 **** 0.06
4818 H 75.93244985886543 21.20258427594962 19.346486741424485 H 0.0 **** 0.06
4819 H 77.48247137426142 21.025708408515328 20.204404373122216 H 0.0 **** 0.06
4820 H 76.44535990386919 19.603345433342923 19.93753398934119 H 0.0 **** 0.06
4821 C 23.715278192671974 107.38075721520593 117.56660138061531 C 0.0 **** -0.24
4822 H 22.879024094074055 107.91609470052643 117.11607609631027 H 0.0 **** 0.06
4823 H 24.614293543598023 107.54214918600218 116.97057265737375 H 0.0 **** 0.06
4824 H 23.48801945229917 106.31518868275177 117.59977216866363 H 0.0 **** 0.06
4825 H 23.879101052802923 107.74885924948546 118.58002585353812 H 0.0 **** 0.06
4826 C 27.92672661557549 82.46935780686968 33.24493370724676 C 0.0 **** -0.24
4827 H 27.890637057285005 81.41788169719365 33.531020581701966 H 0.0 **** 0.06
4828 H 26.934649406824462 82.9091888331875 33.35610347120388 H 0.0 **** 0.06
4829 H 28.247815197144206 82.5530878073084 32.2069132302355 H 0.0 **** 0.06
4830 H 28.6319821701224 82.99671550794992 33.88723627128243 H 0.0 **** 0.06
4831 C 50.63380616975192 28.931036576025264 21.036743612996844 C 0.0 **** -0.24
4832 H 50.45068614075359 28.82617131591965 19.96717291216747 H 0.0 **** 0.06
4833 H 50.60620040349147 29.986546242481097 21.30771483867366 H 0.0 **** 0.06
4834 H 51.61298843850335 28.518141931800557 21.279552661214794 H 0.0 **** 0.06
4835 H 49.86456813652745 28.393040377044855 21.59100806475172 H 0.0 **** 0.06
4836 C 9.946126403106177 11.133865525405781 117.10665479393674 C 0.0 **** -0.24
4837 H 10.185229955566115 11.84343724940571 117.89832173759027 H 0.0 **** 0.06
4838 H 10.57513336475131 10.249046549763477 117.21152057627012 H 0.0 **** 0.06
4839 H 10.128256465909601 11.5968122861223 116.13667124749148 H 0.0 **** 0.06
4840 H 8.897724092131114 10.845839877420772 117.18082299464251 H 0.0 **** 0.06
4841 C 91.33092243296815 28.194492034048693 24.727311266890183 C 0.0 **** -0.24
4842 H 91.01912812769189 28.453643854883012 23.715196248604116 H 0.0 **** 0.06
4843 H 91.1768271875826 29.051061600240047 25.384650177486037 H 0.0 **** 0.06
4844 H 92.38596542600666 27.923057418414544 24.723362931461452 H 0.0 **** 0.06
4845 H 90.73884782233844 27.35081393247819 25.08401160015535 H 0.0 **** 0.06
4846 C 13.185792213420005 24.882835497173318 64.49099391577346 C 0.0 **** -0.24
4847 H 14.248806952646898 24.796854845640922 64.71738992113862 H 0.0 **** 0.06
4848 H 12.628094133002072 25.033657632167433 65.41502077461277 H 0.0 **** 0.06
4849 H 12.843782692355632 23.968751064602344 64.00471589241715 H 0.0 **** 0.06
4850 H 13.023994582727283 25.731169540350976 63.82547228271807 H 0.0 **** 0.06
4851 C 88.1052108137522 83.02455072809283 17.388881880778868 C 0.0 **** -0.24
4852 H 88.26633356651661 82.55173501890278 16.420370207669606 H 0.0 **** 0.06
4853 H 87.27660095266714 82.53239794320913 17.899681796487172 H 0.0 **** 0.06
4854 H 87.86887392739482 84.07897542401594 17.24367994571294 H 0.0 **** 0.06
4855 H 89.00903480842999 82.93509452624352 17.991795573245994 H 0.0 **** 0.06
4856 C 89.43536796438667 38.18835878249121 2.5363959021395033 C 0.0 **** -0.24
4857 H 90.26126076222539 37.47651744490361 2.5033168093822553 H 0.0 **** 0.06
4858 H 89.60652600072922 38.905483358135825 3.3388149708323738 H 0.0 **** 0.06
4859 H 88.50306055148474 37.65361848822556 2.717908529879111 H 0.0 **** 0.06
4860 H 89.37281136691686 38.715036103687964 1.5843219655178586 H 0.0 **** 0.06
4861 C 22.615098787231943 90.33731454468514 39.301169922648 C 0.0 **** -0.24
4862 H 22.89860199133409 89.30566516637319 39.09136607273868 H 0.0 **** 0.06
4863 H 21.6917324758752 90.3486857353277 39.88116693768794 H 0.0 **** 0.06
4864 H 22.46278838143496 90.87025457651279 38.36382448687925 H 0.0 **** 0.06
4865 H 23.408306926903776 90.82173299540622 39.871221481420974 H 0.0 **** 0.06
4866 C 2.6442200686130946 34.60911456577085 47.12931907553792 C 0.0 **** -0.24
4867 H 2.990228064684942 33.767608807158865 46.52834843979696 H 0.0 **** 0.06
4868 H 2.2227683655646615 34.238041101554586 48.06430953239152 H 0.0 **** 0.06
4869 H 1.8820797562042912 35.15962294980389 46.579361171638084 H 0.0 **** 0.06
4870 H 3.4844934793520963 35.26902179455519 47.3467017154004 H 0.0 **** 0.06
4871 C 86.19990557489106 36.71634969101352 32.19954062755511 C 0.0 **** -0.24
4872 H 86.26599251273791 35.67705878393849 31.878002070204673 H 0.0 **** 0.06
4873 H 86.37039565946671 36.77505728682752 33.274929267487664 H 0.0 **** 0.06
4874 H 85.20903185855667 37.1067347817654 31.96752363221094 H 0.0 **** 0.06
4875 H 86.95421399273476 37.306349289806874 31.679107727193525 H 0.0 **** 0.06
4876 C 109.06534752789156 58.797480625920606 9.270811429459911 C 0.0 **** -0.24
4877 H 109.27162560990928 57.958523261526665 8.606821988980272 H 0.0 **** 0.06
4878 H 108.13194060890032 59.27613658622614 8.972675239155592 H 0.0 **** 0.06
4879 H 109.87988022560148 59.51945339593198 9.208457918536766 H 0.0 **** 0.06
4880 H 108.97794366715516 58.43580925999785 10.295290571166959 H 0.0 **** 0.06
4881 C 111.36041175459145 51.63622122868766 25.369816569114235 C 0.0 **** -0.24
4882 H 110.60221984966478 52.32485104109549 24.997555746065494 H 0.0 **** 0.06
4883 H 110.91602640041361 50.65101146024847 25.516355236686067 H 0.0 **** 0.06
4884 H 111.74996170956109 52.004180967811 26.319748498605236 H 0.0 **** 0.06
4885 H 112.17236090427224 51.565195464665656 24.646450812159422 H 0.0 **** 0.06
4886 C 96.62763428457734 49.59797717552095 33.4654218370801 C 0.0 **** -0.24
4887 H 96.32266000070979 49.22130807146061 32.48838638305466 H 0.0 **** 0.06
4888 H 96.71612947410597 50.68354233145223 33.42412999264445 H 0.0 **** 0.06
4889 H 97.58933020879186 49.16376975287946 33.736834686031784 H 0.0 **** 0.06
4890 H 95.88057211529798 49.322095908144234 34.21006188702955 H 0.0 **** 0.06
4891 C 89.61593286048807 41.199827692723204 104.65367159674437 C 0.0 **** -0.24
4892 H 89.0169745035729 41.61245915971989 105.46600855456262 H 0.0 **** 0.06
4893 H 89.8019867188961 41.97539822883232 103.91016202680302 H 0.0 **** 0.06
4894 H 89.07833071771088 40.37212443549146 104.19058800993957 H 0.0 **** 0.06
4895 H 90.56517399979253 40.839925204696016 105.04967228976244 H 0.0 **** 0.06
4896 C 102.59193719658703 32.78635690972692 91.39653184249312 C 0.0 **** -0.24
4897 H 101.87745829844994 33.223332820675296 92.09346156123738 H 0.0 **** 0.06
4898 H 102.38522257615716 33.14782624491119 90.38885820821875 H 0.0 **** 0.06
4899 H 102.50232649104268 31.699582114109774 91.41811137349566 H 0.0 **** 0.06
4900 H 103.60302826350676 33.07285731290199 91.68444234373487 H 0.0 **** 0.06
4901 C 98.67619771813582 87.38414594177988 101.30118148404989 C 0.0 **** -0.24
4902 H 98.97870857694079 87.27034994342569 100.25947429657339 H 0.0 **** 0.06
4903 H 99.00618018934466 88.35512582823782 101.67103656256052 H 0.0 **** 0.06
4904 H 99.13005277643009 86.59423658212563 101.89926667310607 H 0.0 **** 0.06
4905 H 97.59060617481578 87.31653837867384 101.37287077264153 H 0.0 **** 0.06
4906 C 101.34393436368748 79.69098254279203 5.452180646428786 C 0.0 **** -0.24
4907 H 102.02589307327128 80.06950587173034 6.213720893228356 H 0.0 **** 0.06
4908 H 101.90719688864559 79.12055974264575 4.712596052675167 H 0.0 **** 0.06
4909 H 100.84503217748991 80.52778501932895 4.962987052384676 H 0.0 **** 0.06
4910 H 100.59966644095078 79.04557273558967 5.918179083664626 H 0.0 **** 0.06
4911 C 109.30648035243462 102.1655325942312 7.063350613563841 C 0.0 **** -0.24
4912 H 108.79986762591369 101.21028873450427 7.203178636919617 H 0.0 **** 0.06
4913 H 108.7887067571753 102.93759349155351 7.632504902042225 H 0.0 **** 0.06
4914 H 109.30174164525295 102.42790414011628 6.005480188009173 H 0.0 **** 0.06
4915 H 110.33587643209432 102.08515715055964 7.412958453434065 H 0.0 **** 0.06
4916 C 3.7397356861535513 40.49747857400999 51.78054418365514 C 0.0 **** -0.24
4917 H 4.709568137600016 40.898749334557465 52.075735574055784 H 0.0 **** 0.06
4918 H 3.310530494147301 39.937420452724666 52.610961487268696 H 0.0 **** 0.06
4919 H 3.866555458319894 39.8366367916141 50.92211649206405 H 0.0 **** 0.06
4920 H 3.073665195609621 41.317387840560855 51.51135644269658 H 0.0 **** 0.06
4921 C 31.896392308876187 85.68601857132802 96.4412697493409 C 0.0 **** -0.24
4922 H 31.03605027226004 85.91482590728728 95.81216091597074 H 0.0 **** 0.06
4923 H 31.7085002485517 86.03813048550023 97.45606281086535 H 0.0 **** 0.06
4924 H 32.78069586955712 86.1821649450331 96.0416035066309 H 0.0 **** 0.06
4925 H 32.05955316629951 84.60860140011383 96.4547187867926 H 0.0 **** 0.06
4926 C 102.21247451375521 80.61573083075012 95.35155666933102 C 0.0 **** -0.24
4927 H 101.78271670640558 81.18382606528382 94.52631174801195 H 0.0 **** 0.06
4928 H 101.86440355867947 81.03164794461424 96.29808020416482 H 0.0 **** 0.06
4929 H 103.29930509231934 80.6752332626263 95.30637027997597 H 0.0 **** 0.06
4930 H 101.90187395578889 79.57406999838085 95.2755495081552 H 0.0 **** 0.06
4931 C 67.39023654682339 46.398902390509704 82.2447667480576 C 0.0 **** -0.24
4932 H 67.11878851819 45.86265917415623 81.33616384398056 H 0.0 **** 0.06
4933 H 68.33909162238163 46.016302970991205 82.62284999989404 H 0.0 **** 0.06
4934 H 66.61468813449426 46.25540185620313 82.99691524988626 H 0.0 **** 0.06
4935 H 67.48898636019578 47.4619499880465 82.02350345124222 H 0.0 **** 0.06
4936 C 84.16263039239976 54.67940271391791 77.84708782856751 C 0.0 **** -0.24
4937 H 85.18966076990051 54.45363838968083 77.55831930376058 H 0.0 **** 0.06
4938 H 84.16304268602548 55.45014111701218 78.61717952191995 H 0.0 **** 0.06
4939 H 83.68875812814306 53.77754935055995 78.2349108917661 H 0.0 **** 0.06
4940 H 83.6107952027169 55.03386498719075 76.97687031970457 H 0.0 **** 0.06
4941 C 7.623660321167279 51.268128566556676 22.12403348750064 C 0.0 **** -0.24
4942 H 8.012813159687596 50.3097512236303 21.780094433938643 H 0.0 **** 0.06
4943 H 6.552551138041622 51.31735210430522 21.923428421345477 H 0.0 **** 0.06
4944 H 8.12986859613494 52.07660775307332 21.595661677253645 H 0.0 **** 0.06
4945 H 7.798518388089036 51.36787159946085 23.195121762832457 H 0.0 **** 0.06
4946 C 25.653184630859897 19.24530258217833 92.832747822713 C 0.0 **** -0.24
4947 H 24.9841057979219 18.89276974090263 92.04683413536802 H 0.0 **** 0.06
4948 H 26.658256581535 18.8635057737442 92.65205823492494 H 0.0 **** 0.06
4949 H 25.29702610160055 18.88787920966689 93.79910789194375 H 0.0 **** 0.06
4950 H 25.672463305870252 20.3345633494606 92.83157580261175 H 0.0 **** 0.06
4951 C 29.524098483292327 73.10581957585677 18.02577855746688 C 0.0 **** -0.24
4952 H 29.065207277625582 72.91266887550697 17.056007547954664 H 0.0 **** 0.06
4953 H 30.360915099656864 73.79240710241547 17.90070816207796 H 0.0 **** 0.06
4954 H 29.88431706353137 72.16829192294804 18.450004483037645 H 0.0 **** 0.06
4955 H 28.78618623732659 73.5478393018017 18.695106725682734 H 0.0 **** 0.06
4956 C 113.32766854844232 46.23774897594481 65.17705296471922 C 0.0 **** -0.24
4957 H 113.68666403777615 45.36556034484104 65.72351555780082 H 0.0 **** 0.06
4958 H 113.69752840913777 47.14443640077286 65.65687979017531 H 0.0 **** 0.06
4959 H 112.23837168988457 46.24446525438589 65.17886733197292 H 0.0 **** 0.06
4960 H 113.68993407573528 46.19615652545397 64.149677714306 H 0.0 **** 0.06
4961 C 20.61684762660504 96.89503222114615 29.449114642735793 C 0.0 **** -0.24
4962 H 20.597400725699544 97.7664532926174 28.794183886160766 H 0.0 **** 0.06
4963 H 21.440308140073867 96.2419395152344 29.159753548280946 H 0.0 **** 0.06
4964 H 19.67536840660778 96.35382720686826 29.361632786317898 H 0.0 **** 0.06
4965 H 20.755381111106594 97.21908146877882 30.480192061922367 H 0.0 **** 0.06
4966 C 60.09312084705518 16.91560646975239 2.0629245624565637 C 0.0 **** -0.24
4967 H 60.15959734874988 16.271033613771067 2.939265719813836 H 0.0 **** 0.06
4968 H 59.43870820802079 16.454766878722523 1.322644798833883 H 0.0 **** 0.06
4969 H 61.08633293157613 17.05251764211573 1.636002812765712 H 0.0 **** 0.06
4970 H 59.68673371114655 17.88436731032749 2.355707979372351 H 0.0 **** 0.06
4971 C 102.64695072406997 56.82974461745286 46.770389544282295 C 0.0 **** -0.24
4972 H 102.29307343924336 56.38814477512918 47.701006261636564 H 0.0 **** 0.06
4973 H 102.2650381222457 57.84753426788993 46.681929365149756 H 0.0 **** 0.06
4974 H 102.292989546131 56.23464574869979 45.9278048178835 H 0.0 **** 0.06
4975 H 103.73701379734484 56.84933640482984 46.76871135806363 H 0.0 **** 0.06
4976 C 105.49720941174553 72.68773291786943 26.757977606393297 C 0.0 **** -0.24
4977 H 105.58178005569366 73.77030193295982 26.859330129742148 H 0.0 **** 0.06
4978 H 105.81324098087833 72.21055106266823 27.685080943488288 H 0.0 **** 0.06
4979 H 106.13286947859262 72.34978494812674 25.938598167603914 H 0.0 **** 0.06
4980 H 104.4613233604124 72.42300255227244 26.54655140917123 H 0.0 **** 0.06
4981 C 57.820074237839094 65.74501272888898 108.60124778130881 C 0.0 **** -0.24
4982 H 57.795861250727455 64.65627056818846 108.56123107256167 H 0.0 **** 0.06
4983 H 58.53475769405799 66.11908312646335 107.86715847687549 H 0.0 **** 0.06
4984 H 58.12158046821622 66.06473243021935 109.59863909086337 H 0.0 **** 0.06
4985 H 56.82865453992042 66.13897384977446 108.37712111896622 H 0.0 **** 0.06
4986 C 38.518593254586335 19.644548316334518 85.74700359345604 C 0.0 **** -0.24
4987 H 39.522947511167125 19.894206033843542 85.4042402566958 H 0.0 **** 0.06
4988 H 38.44483006300596 19.829121671009414 86.81934349798013 H 0.0 **** 0.06
4989 H 38.31623625991926 18.592677469378085 85.54350534888525 H 0.0 **** 0.06
4990 H 37.79194466630448 20.262850605935512 85.2211431871142 H 0.0 **** 0.06
4991 C 78.30763556198491 111.38044821000523 2.5311162331527726 C 0.0 **** -0.24
4992 H 79.04932870543053 110.60161591137384 2.35452730972969 H 0.0 **** 0.06
4993 H 77.82497510516998 111.21188132348115 3.4942030736739866 H 0.0 **** 0.06
4994 H 77.55837271566088 111.35459414131188 1.739270959186058 H 0.0 **** 0.06
4995 H 78.79792557379955 112.35467384262523 2.535031436315762 H 0.0 **** 0.06
4996 C 38.33943197743872 73.27199643679563 117.39282914912008 C 0.0 **** -0.24
4997 H 37.261743858008174 73.433779344123 117.40404144033135 H 0.0 **** 0.06
4998 H 38.82162329594121 73.98612083045063 118.06090478188415 H 0.0 **** 0.06
4999 H 38.71735340371569 73.4104427299851 116.38020231273394 H 0.0 **** 0.06
5000 H 38.557007352089926 72.2576428426236 117.72616806153079 H 0.0 **** 0.06
5001 C 119.41194028211063 67.70816066679191 54.99929747376643 C 0.0 **** -0.24
5002 H 120.03323268286519 66.81287311725296 54.96462585200507 H 0.0 **** 0.06
5003 H 118.78431030595237 67.67962279313409 55.89080092882551 H 0.0 **** 0.06
5004 H 118.78097063216173 67.74755344702339 54.11100772715477 H 0.0 **** 0.06
5005 H 120.04924358844194 68.59187105462263 55.03197129969544 H 0.0 **** 0.06
5006 C 112.74829241384705 106.7644258096577 74.86729707784491 C 0.0 **** -0.24
5007 H 112.95297690186308 107.8243455397157 74.71823828325813 H 0.0 **** 0.06
5008 H 111.68044180204942 106.5809489380052 74.74489411704053 H 0.0 **** 0.06
5009 H 113.05494943995558 106.47329032928602 75.87266358348708 H 0.0 **** 0.06
5010 H 113.30450219775938 106.17979705032903 74.13406310593888 H 0.0 **** 0.06
5011 C 17.772977869459424 66.8630607902333 57.90388735616836 C 0.0 **** -0.24
5012 H 17.646988969269575 67.94593097857708 57.864502222457226 H 0.0 **** 0.06
5013 H 17.27510969944113 66.47198935679208 58.79092992752292 H 0.0 **** 0.06
5014 H 18.83466818012558 66.62260739731869 57.945731163347155 H 0.0 **** 0.06
5015 H 17.33341712227506 66.41528054937825 57.0132430548805 H 0.0 **** 0.06
5016 C 121.96214156852568 105.67330970194638 52.31683344317929 C 0.0 **** -0.24
5017 H 122.10816303289027 106.29183894747896 51.43092686318232 H 0.0 **** 0.06
5018 H 121.89790711262887 106.31143993013407 53.19860207349018 H 0.0 **** 0.06
5019 H 122.80373627297374 104.98896907372475 52.42375576751337 H 0.0 **** 0.06
5020 H 121.03981471954955 105.10269859091085 52.21264506032355 H 0.0 **** 0.06
5021 C 102.50752660077586 59.82589999318646 106.37956293239773 C 0.0 **** -0.24
5022 H 102.20907127339697 60.5040186310195 105.57878470181532 H 0.0 **** 0.06
5023 H 101.63464886338943 59.56498273031047 106.97808341924943 H 0.0 **** 0.06
5024 H 103.25003972087873 60.31356042708234 107.01084470142894 H 0.0 **** 0.06
5025 H 102.93522050506184 58.92119672639 105.9469741242481 H 0.0 **** 0.06
5026 C 40.948811731080184 118.2208427689734 86.50621595190563 C 0.0 **** -0.24
5027 H 40.617045574300676 118.03947569180761 87.52904995020921 H 0.0 **** 0.06
5028 H 41.66270449894051 117.45029301077665 86.21499383616182 H 0.0 **** 0.06
5029 H 41.42535713987769 119.19940503608984 86.44742399899971 H 0.0 **** 0.06
5030 H 40.089695278771046 118.19337141628216 85.83673083894396 H 0.0 **** 0.06
5031 C 106.17915933209724 69.27361976138013 34.011336404776955 C 0.0 **** -0.24
5032 H 107.18177038123753 69.62857590274012 34.247912608669935 H 0.0 **** 0.06
5033 H 105.44678068061842 69.848118556634 34.57794450491937 H 0.0 **** 0.06
5034 H 106.09584778411443 68.21844165171512 34.27494704237935 H 0.0 **** 0.06
5035 H 105.99185619911452 69.39693036593883 32.94435786924109 H 0.0 **** 0.06
5036 C 108.28915297773028 15.991977125621418 13.088891772061046 C 0.0 **** -0.24
5037 H 109.16807976920936 15.595524212739548 13.596927100220409 H 0.0 **** 0.06
5038 H 108.53721175259662 16.211923542446357 12.049987248083834 H 0.0 **** 0.06
5039 H 107.96356798383405 16.905676845652692 13.586499431496993 H 0.0 **** 0.06
5040 H 107.48721537610106 15.253804744405954 13.123021042320303 H 0.0 **** 0.06
5041 C 100.4399179360297 74.72384247250136 4.094667601388068 C 0.0 **** -0.24
5042 H 99.61735056380604 74.21526374889964 4.596458066944265 H 0.0 **** 0.06
5043 H 100.90573926276687 74.04430847182977 3.3817502838528952 H 0.0 **** 0.06
5044 H 101.17704610189361 75.03820891812708 4.832767778452407 H 0.0 **** 0.06
5045 H 100.0581520256994 75.59862904567649 3.567749770890046 H 0.0 **** 0.06
5046 C 38.65592464499209 8.81892090119543 43.75124790564033 C 0.0 **** -0.24
5047 H 38.340665315806866 7.7757303260321216 43.746879448327974 H 0.0 **** 0.06
5048 H 39.42986267992932 8.96778635683771 42.99716354900478 H 0.0 **** 0.06
5049 H 39.05246808578167 9.074508669425747 44.734493750042816 H 0.0 **** 0.06
5050 H 37.80234538576405 9.45759927272572 43.5259093390722 H 0.0 **** 0.06
5051 C 7.266375031906051 59.7872257725744 55.69769236438117 C 0.0 **** -0.24
5052 H 7.658730621766438 60.8044553946722 55.69420667439874 H 0.0 **** 0.06
5053 H 6.2049152353109776 59.80732029168516 55.94417040742434 H 0.0 **** 0.06
5054 H 7.801940190788002 59.19503331890513 56.44080357978936 H 0.0 **** 0.06
5055 H 7.403408383204436 59.34215715995015 54.712475694214504 H 0.0 **** 0.06
5056 C 27.24663519790184 43.110306525377496 45.46190103866391 C 0.0 **** -0.24
5057 H 26.563493076972577 42.56037461730014 46.10885377524477 H 0.0 **** 0.06
5058 H 26.845053253932917 43.13692695347717 44.448627404606185 H 0.0 **** 0.06
5059 H 28.218519464002554 42.61531151479471 45.454891983825235 H 0.0 **** 0.06
5060 H 27.3606165156215 44.12835426336315 45.8344372070157 H 0.0 **** 0.06
5061 C 5.814650938413251 35.617314879386605 93.21849744685215 C 0.0 **** -0.24
5062 H 4.9692146947863876 36.00512225787972 93.78558037591952 H 0.0 **** 0.06
5063 H 6.741825762803558 36.02857719846303 93.62024039337996 H 0.0 **** 0.06
5064 H 5.713333371045167 35.90422183750949 92.17101170855702 H 0.0 **** 0.06
5065 H 5.83574827885343 34.52947993695345 93.2966656735131 H 0.0 **** 0.06
5066 C 74.83895714550991 116.08546161520916 117.86934220211451 C 0.0 **** -0.24
5067 H 73.7570688835834 116.18077375569598 117.95898865162332 H 0.0 **** 0.06
5068 H 75.3148862371298 117.00321967844786 118.21752731528048 H 0.0 **** 0.06
5069 H 75.1033161923632 115.91142314437725 116.82667831055602 H 0.0 **** 0.06
5070 H 75.18074276372073 115.24699234290757 118.47655141209613 H 0.0 **** 0.06
5071 C 24.737553959413617 81.98966865150766 91.53308234303626 C 0.0 **** -0.24
5072 H 23.898147811111755 81.96192442445141 90.83861227124473 H 0.0 **** 0.06
5073 H 24.366477427941362 82.15555775837669 92.54525339105854 H 0.0 **** 0.06
5074 H 25.412942765033733 82.7989965967576 91.25555329600064 H 0.0 **** 0.06
5075 H 25.27344232046454 81.04048075393615 91.49410523398396 H 0.0 **** 0.06
5076 C 110.82048031110358 15.033137428014413 95.31585017072501 C 0.0 **** -0.24
5077 H 110.33722120517848 15.637021342266337 96.0843474204089 H 0.0 **** 0.06
5078 H 111.6335887481005 14.460657519542849 95.76290899090134 H 0.0 **** 0.06
5079 H 111.21988634297826 15.685723869123649 94.53979162709618 H 0.0 **** 0.06
5080 H 110.09231044727849 14.3505373519518 94.87897735728677 H 0.0 **** 0.06
5081 C 77.76436473714438 58.03034280010431 86.6207429944476 C 0.0 **** -0.24
5082 H 76.70396486445082 58.21373813165789 86.79565846964996 H 0.0 **** 0.06
5083 H 77.91463189790181 57.7330588771961 85.58245149922274 H 0.0 **** 0.06
5084 H 78.10939069901059 57.234537279075624 87.2810473192115 H 0.0 **** 0.06
5085 H 78.32791452562822 58.941286006794094 86.82394061302875 H 0.0 **** 0.06
5086 C 88.87794428323349 103.56455067397383 89.34447876372815 C 0.0 **** -0.24
5087 H 88.4311030574529 103.37272107114734 90.31995272375184 H 0.0 **** 0.06
5088 H 89.87650695706199 103.98123247780757 89.47800035915651 H 0.0 **** 0.06
5089 H 88.2586120455448 104.27369666449715 88.7953898231828 H 0.0 **** 0.06
5090 H 88.94506883662456 102.6312882483187 88.78504361308165 H 0.0 **** 0.06
5091 C 28.128626713593462 120.33779878117326 64.82608402419129 C 0.0 **** -0.24
5092 H 28.490695212470882 120.29917196598485 65.85407360085475 H 0.0 **** 0.06
5093 H 28.60472414433184 119.54780618286215 64.24377383450263 H 0.0 **** 0.06
5094 H 28.373544699184322 121.30721240231166 64.39073059746735 H 0.0 **** 0.06
5095 H 27.048329557402667 120.19656294684592 64.81595652137904 H 0.0 **** 0.06
5096 C 26.389519626729594 105.54231755406033 50.71738047424689 C 0.0 **** -0.24
5097 H 25.49383222671576 104.94029405862392 50.559776537676996 H 0.0 **** 0.06
5098 H 26.86977197182601 105.73697924011736 49.758883945955766 H 0.0 **** 0.06
5099 H 27.079050800817953 105.0030360094039 51.367419969296215 H 0.0 **** 0.06
5100 H 26.114146583096925 106.48724625569514 51.185293436597306 H 0.0 **** 0.06
5101 C 94.4676027033629 60.04057549134635 51.24655799585193 C 0.0 **** -0.24
5102 H 95.05500029004412 59.649472746204005 52.077975406674454 H 0.0 **** 0.06
5103 H 95.13481309710673 60.48089696104662 50.506072086282146 H 0.0 **** 0.06
5104 H 93.77908872436521 60.8003025612334 51.61490340852586 H 0.0 **** 0.06
5105 H 93.90196207162865 59.22882413198406 50.78971501715222 H 0.0 **** 0.06
5106 C 50.065748803312104 32.68296937590142 3.093939635576689 C 0.0 **** -0.24
5107 H 49.438528928270344 33.57381075221889 3.058996732327927 H 0.0 **** 0.06
5108 H 50.02463327868465 32.172021422847735 2.1320826699797664 H 0.0 **** 0.06
5109 H 49.705293792553384 32.01524074300187 3.876710873164839 H 0.0 **** 0.06
5110 H 51.09509364778632 32.972091011032774 3.3077737837815278 H 0.0 **** 0.06
5111 C 31.654298644184053 59.17383638370674 119.29788779739758 C 0.0 **** -0.24
5112 H 31.155292516598763 58.24441349899155 119.57253689030009 H 0.0 **** 0.06
5113 H 30.933726155326667 59.99241095008654 119.31776705139904 H 0.0 **** 0.06
5114 H 32.069397160615836 59.07981334430531 118.29419808279374 H 0.0 **** 0.06
5115 H 32.45660992986774 59.37820390767553 120.00602802361675 H 0.0 **** 0.06
5116 C 71.73855294182223 95.04948912737342 32.98395739962183 C 0.0 **** -0.24
5117 H 71.1287325979718 95.95060456720077 33.06018292279418 H 0.0 **** 0.06
5118 H 72.79295960739375 95.32088090428076 33.0377368400018 H 0.0 **** 0.06
5119 H 71.53786658704934 94.55520116084833 32.03373611505634 H 0.0 **** 0.06
5120 H 71.49385833372526 94.37542760163151 33.80388584110983 H 0.0 **** 0.06
5121 C 11.896613279553264 15.172342476818756 53.99187978838751 C 0.0 **** -0.24
5122 H 11.706278590225054 16.220628126921213 53.75903198339961 H 0.0 **** 0.06
5123 H 10.96312484469297 14.611980427699734 53.92862698107308 H 0.0 **** 0.06
5124 H 12.301864244644264 15.092277892100867 55.00021723520271 H 0.0 **** 0.06
5125 H 12.613574206812928 14.7669378874333 53.27846810184943 H 0.0 **** 0.06
5126 C 0.6516751507385408 24.17116371286245 117.67259344336335 C 0.0 **** -0.24
5127 H -0.3400219945143448 23.7193274163018 117.6494446796384 H 0.0 **** 0.06
5128 H 1.408395214762976 23.390446340651522 117.59053065164245 H 0.0 **** 0.06
5129 H 0.7841002829709538 24.709377951980002 118.61077312058315 H 0.0 **** 0.06
5130 H 0.7534781608962646 24.865258315070555 116.83808281806418 H 0.0 **** 0.06
5131 C 98.83356124300352 7.934585812079604 52.32176960406731 C 0.0 **** -0.24
5132 H 99.63748929566685 8.658844102962092 52.45338171304319 H 0.0 **** 0.06
5133 H 99.22160122887729 7.049666156241955 51.81721999481925 H 0.0 **** 0.06
5134 H 98.04077035362064 8.3787011537907 51.72011249381937 H 0.0 **** 0.06
5135 H 98.43613982341961 7.652192880787524 53.297702844549256 H 0.0 **** 0.06
5136 C 82.56503594702491 44.48854319081414 45.242774991152345 C 0.0 **** -0.24
5137 H 83.53725784451643 44.61843801268634 44.7677770704955 H 0.0 **** 0.06
5138 H 81.93261258622664 43.865366230474876 44.61012317281225 H 0.0 **** 0.06
5139 H 82.09495419304349 45.4627286951893 45.37891426384121 H 0.0 **** 0.06
5140 H 82.69609306515068 44.0081359311381 46.21224701825071 H 0.0 **** 0.06
5141 C 20.97035871635498 25.24836355010848 98.50967751749312 C 0.0 **** -0.24
5142 H 21.246904293499796 26.30212129217881 98.50147814128337 H 0.0 **** 0.06
5143 H 21.218718992773688 24.815034949615494 99.47799542510418 H 0.0 **** 0.06
5144 H 21.515839372652295 24.723593742742935 97.72474460006165 H 0.0 **** 0.06
5145 H 19.898440593572218 25.152636066311345 98.33286408418289 H 0.0 **** 0.06
5146 C 56.3794641376457 108.42162436497529 50.9710557636576 C 0.0 **** -0.24
5147 H 56.090216847610805 107.51789891651293 50.43434684168295 H 0.0 **** 0.06
5148 H 55.83036464677281 108.4762078036504 51.911375687532 H 0.0 **** 0.06
5149 H 56.14799096982682 109.29570153447355 50.36254578772406 H 0.0 **** 0.06
5150 H 57.45034147812635 108.39532417676944 51.17696411499324 H 0.0 **** 0.06
5151 C 47.92958904375291 107.10497807751489 34.00298237713787 C 0.0 **** -0.24
5152 H 47.086713022783385 106.94559512594637 34.67589563150946 H 0.0 **** 0.06
5153 H 48.75846023599098 107.54676579239654 34.55716678577902 H 0.0 **** 0.06
5154 H 47.63124983371904 107.77714976344575 33.19889903021206 H 0.0 **** 0.06
5155 H 48.24318168566293 106.14985066928332 33.58033893260148 H 0.0 **** 0.06
5156 C 107.65384239986497 99.35379853458764 11.485733939350851 C 0.0 **** -0.24
5157 H 107.60553006275532 98.91574041507596 12.482364812702727 H 0.0 **** 0.06
5158 H 106.68797437229662 99.2428338055642 10.992596100741167 H 0.0 **** 0.06
5159 H 108.42079880249875 98.84343281866128 10.901065677146605 H 0.0 **** 0.06
5160 H 107.90295394910316 100.41180101862693 11.566190745192444 H 0.0 **** 0.06
5161 C 2.261950659577849 88.76416505296243 22.412662349108018 C 0.0 **** -0.24
5162 H 2.454294371545828 89.49071297161652 21.62325741920756 H 0.0 **** 0.06
5163 H 2.138396956293832 87.77426229844559 21.972919045715045 H 0.0 **** 0.06
5164 H 1.3518151699133796 89.04101473346714 22.94627912646945 H 0.0 **** 0.06
5165 H 3.100738522132545 88.75219839110616 23.10784202908519 H 0.0 **** 0.06
5166 C 102.34484584431183 46.59028755122236 84.72151132814639 C 0.0 **** -0.24
5167 H 101.8926736639763 47.12498926694025 85.55698816176152 H 0.0 **** 0.06
5168 H 103.10452120479803 45.90409274485802 85.09743981833017 H 0.0 **** 0.06
5169 H 102.80514692128511 47.30489609785647 84.03884471910271 H 0.0 **** 0.06
5170 H 101.57564132950071 46.02730418808861 84.19262448772511 H 0.0 **** 0.06
5171 C 1.8398707017467473 13.330746464302091 112.21734876175776 C 0.0 **** -0.24
5172 H 2.4943336690828914 12.50029941824474 112.48358568368303 H 0.0 **** 0.06
5173 H 2.3855298556933633 14.268628556050071 112.32024866755641 H 0.0 **** 0.06
5174 H 0.974820672939245 13.33906860548862 112.8795868262399 H 0.0 **** 0.06
5175 H 1.5075678898603542 13.214501413673787 111.18566806032537 H 0.0 **** 0.06
5176 C 79.26900718771213 94.26854487465368 95.14339899310608 C 0.0 **** -0.24
5177 H 79.28050123867564 94.50975707008786 94.08044005788872 H 0.0 **** 0.06
5178 H 78.2597907547607 94.40085044885575 95.53423603474488 H 0.0 **** 0.06
5179 H 79.95429334864158 94.92958440489815 95.67327134057962 H 0.0 **** 0.06
5180 H 79.5809579680697 93.23364516838001 95.28436509988165 H 0.0 **** 0.06
5181 C 20.183005620206828 40.14000490132102 19.729626569812922 C 0.0 **** -0.24
5182 H 21.22794538293337 40.39981256692436 19.896737176959817 H 0.0 **** 0.06
5183 H 19.693083048049118 39.969831863044135 20.68820005431394 H 0.0 **** 0.06
5184 H 20.1256148515362 39.23354486631268 19.12583545276405 H 0.0 **** 0.06
5185 H 19.684648109650567 40.95658380819544 19.206548328133806 H 0.0 **** 0.06
5186 C 26.218546333690313 45.94293321582626 109.81817593597731 C 0.0 **** -0.24
5187 H 26.600033837966237 46.38734787287149 110.7377747936427 H 0.0 **** 0.06
5188 H 25.740735584181266 46.71356407846952 109.2137745333855 H 0.0 **** 0.06
5189 H 25.49097684865643 45.169007367733855 110.06253745351717 H 0.0 **** 0.06
5190 H 27.044108910692955 45.50148334005752 109.25893750052313 H 0.0 **** 0.06
5191 C 52.67987327347299 89.82383269822307 25.75422687018539 C 0.0 **** -0.24
5192 H 51.848519663021136 89.80386858011761 25.04932705049896 H 0.0 **** 0.06
5193 H 53.56516183632726 89.39844117754495 25.282261503713926 H 0.0 **** 0.06
5194 H 52.4218245011449 89.23874153251009 26.636777306188435 H 0.0 **** 0.06
5195 H 52.88151849115957 90.85466421540133 26.04660292083753 H 0.0 **** 0.06
5196 C 117.78304033487237 47.71243147647564 112.19105096539849 C 0.0 **** -0.24
5197 H 118.57124694813571 48.336418087067514 111.76948461551835 H 0.0 **** 0.06
5198 H 116.91170353802596 47.73581298245584 111.53682271522801 H 0.0 **** 0.06
5199 H 117.50899244157289 48.089964210527995 113.17658988473802 H 0.0 **** 0.06
5200 H 118.14167285920205 46.68680046338116 112.2831374326526 H 0.0 **** 0.06
5201 C 28.881365853528735 4.216006918380316 103.05444363318935 C 0.0 **** -0.24
5202 H 28.141561209264694 4.428369278750722 103.82608826057037 H 0.0 **** 0.06
5203 H 29.74756770514074 4.862103344578145 103.19476416750541 H 0.0 **** 0.06
5204 H 28.444784566066858 4.400102072097667 102.07290663838126 H 0.0 **** 0.06
5205 H 29.190095985671036 3.1723822762345435 103.12533452321128 H 0.0 **** 0.06
5206 C 120.06220306935558 23.187813127888944 104.7477618441971 C 0.0 **** -0.24
5207 H 119.28781628956216 23.45768147783707 105.46523816582908 H 0.0 **** 0.06
5208 H 119.78862266143337 23.56407053507553 103.76123037497621 H 0.0 **** 0.06
5209 H 120.15935992608365 22.102631162116722 104.70833084173725 H 0.0 **** 0.06
5210 H 121.0111430205734 23.62712076577509 105.05334297603562 H 0.0 **** 0.06
5211 C 113.82603817587818 68.85922057153692 16.464287271269026 C 0.0 **** -0.24
5212 H 113.46333968786954 69.23629594005754 15.508192564404137 H 0.0 **** 0.06
5213 H 113.68099930966378 69.61985644160285 17.232144674126275 H 0.0 **** 0.06
5214 H 114.88626749960966 68.62234635108018 16.38184667385929 H 0.0 **** 0.06
5215 H 113.2717292013892 67.96000194922976 16.733210239974003 H 0.0 **** 0.06
5216 C 73.31617242928874 15.568003115296747 85.0765782540816 C 0.0 **** -0.24
5217 H 72.8256946092599 15.6782985109556 86.04337633308589 H 0.0 **** 0.06
5218 H 73.38885603799389 14.510899502700255 84.82341604475707 H 0.0 **** 0.06
5219 H 74.31592494312949 15.999649875482419 85.12609718258042 H 0.0 **** 0.06
5220 H 72.73508382438635 16.086802163747706 84.31353450529494 H 0.0 **** 0.06
5221 C 80.77178236880678 108.40521181569267 41.00756389373417 C 0.0 **** -0.24
5222 H 81.39341862651955 107.51816951682821 40.88826838205661 H 0.0 **** 0.06
5223 H 80.98775578655497 108.87289442475819 41.96801616976036 H 0.0 **** 0.06
5224 H 79.71967883763443 108.11941002902785 40.97092061010988 H 0.0 **** 0.06
5225 H 80.98472670961289 109.10960727125763 40.20316168981882 H 0.0 **** 0.06
5226 C 121.57298212066746 35.2990677137945 56.95834626855304 C 0.0 **** -0.24
5227 H 121.00599391614782 34.36993841164468 57.01443756777758 H 0.0 **** 0.06
5228 H 122.11788989654767 35.33477586413943 56.01366816844521 H 0.0 **** 0.06
5229 H 122.27975165333538 35.34445414428609 57.78722325433324 H 0.0 **** 0.06
5230 H 120.89018159463362 36.14602584127795 57.01624648033339 H 0.0 **** 0.06
5231 C 56.579896003006354 90.14474809447614 52.26263481489514 C 0.0 **** -0.24
5232 H 57.642863054209045 90.00301589760295 52.066051013344236 H 0.0 **** 0.06
5233 H 56.31435698537629 91.18789679483803 52.08782917776128 H 0.0 **** 0.06
5234 H 56.36452721072831 89.88456980047863 53.29938729931416 H 0.0 **** 0.06
5235 H 55.99864255825594 89.50536037030417 51.59823440841075 H 0.0 **** 0.06
5236 C 6.7406892683986825 8.509879144865469 92.83948927125499 C 0.0 **** -0.24
5237 H 6.459454963677842 7.727086031717413 93.54566663770726 H 0.0 **** 0.06
5238 H 6.459494831153336 8.206654169683063 91.83056287201498 H 0.0 **** 0.06
5239 H 7.817524502272363 8.669035689385467 92.88436840539674 H 0.0 **** 0.06
5240 H 6.2252742300829595 9.434666400237816 93.09927767519986 H 0.0 **** 0.06
5241 C 96.10391786071028 116.2360145006673 122.64704660402576 C 0.0 **** -0.24
5242 H 96.80177157867229 115.92320088456756 121.87070200978191 H 0.0 **** 0.06
5243 H 96.35321639850997 115.73416754742715 123.5826175900942 H 0.0 **** 0.06
5244 H 95.08871855226127 115.9700481134872 122.3507571632214 H 0.0 **** 0.06
5245 H 96.17120000719498 117.31447838612226 122.78325152944595 H 0.0 **** 0.06
5246 C 48.81784508276874 12.800840743797956 54.8862372939285 C 0.0 **** -0.24
5247 H 48.35507106914798 13.788241255548716 54.89937643597443 H 0.0 **** 0.06
5248 H 49.16936586578055 12.577967377461764 53.87893559169348 H 0.0 **** 0.06
5249 H 48.08604474007379 12.053438524886115 55.18999742401573 H 0.0 **** 0.06
5250 H 49.6613006690051 12.786647450921897 55.57713410328495 H 0.0 **** 0.06
5251 C 43.41524910262797 117.86618973440099 2.0297508725914497 C 0.0 **** -0.24
5252 H 44.168377456968415 117.75154793606171 2.8095502618157013 H 0.0 **** 0.06
5253 H 43.18857256409444 118.92383244106631 1.8966878859237113 H 0.0 **** 0.06
5254 H 42.51007508666754 117.33303794441531 2.319739278397833 H 0.0 **** 0.06
5255 H 43.795985676882026 117.45511006716393 1.0951304888583024 H 0.0 **** 0.06
5256 C 110.8652705432722 61.91079428854366 30.779687678064278 C 0.0 **** -0.24
5257 H 110.88068334506286 62.80932447936366 31.396661809712356 H 0.0 **** 0.06
5258 H 111.5419495727769 61.16849795275268 31.202786672829774 H 0.0 **** 0.06
5259 H 111.1852016180994 62.159801273553136 29.76769816275936 H 0.0 **** 0.06
5260 H 109.85279905533392 61.506402683482754 30.751882688509 H 0.0 **** 0.06
5261 C 50.92276533311082 90.54441904305378 94.4341737409728 C 0.0 **** -0.24
5262 H 50.57050393341433 91.45592387432617 93.95124726576165 H 0.0 **** 0.06
5263 H 51.73475542883136 90.11321120335072 93.84795871400411 H 0.0 **** 0.06
5264 H 50.103606163756695 89.82861748174412 94.50160148138238 H 0.0 **** 0.06
5265 H 51.28219580644077 90.779923612794 95.4358875027431 H 0.0 **** 0.06
5266 C 58.988244391000215 14.893542280915312 106.5169963876163 C 0.0 **** -0.24
5267 H 59.61357385515664 15.453907974011912 107.21201399892425 H 0.0 **** 0.06
5268 H 58.256328211142794 15.563903144101303 106.0670618192469 H 0.0 **** 0.06
5269 H 58.47164699506241 14.098596406046937 107.05492233025436 H 0.0 **** 0.06
5270 H 59.61286005013245 14.45833695741618 105.73674787150503 H 0.0 **** 0.06
5271 C 49.393305469989116 109.2381569122596 72.79009945389564 C 0.0 **** -0.24
5272 H 48.78595248079168 108.90676057754993 73.63279393338306 H 0.0 **** 0.06
5273 H 48.95497494521416 108.87251148957466 71.86088851463137 H 0.0 **** 0.06
5274 H 50.404727031842555 108.84666323082573 72.89474743555996 H 0.0 **** 0.06
5275 H 49.42468952630364 110.32767205814338 72.77283882031918 H 0.0 **** 0.06
5276 C 19.842254265088684 86.89775966288678 104.73586108929385 C 0.0 **** -0.24
5277 H 20.05936390297606 87.94457439079056 104.52575301215973 H 0.0 **** 0.06
5278 H 20.412325129649247 86.57627246878849 105.60830443982422 H 0.0 **** 0.06
5279 H 20.12130741448172 86.28903019453398 103.87573324352377 H 0.0 **** 0.06
5280 H 18.77777179237171 86.78050974380741 104.93436688055056 H 0.0 **** 0.06
5281 C 40.84010682281057 26.006144189042033 77.61362180299142 C 0.0 **** -0.24
5282 H 40.07940764956463 25.316536857829618 77.97878696546775 H 0.0 **** 0.06
5283 H 41.65960501362153 25.440795752664826 77.16785943364022 H 0.0 **** 0.06
5284 H 41.219392039834865 26.602872833167396 78.4434608264533 H 0.0 **** 0.06
5285 H 40.402467322542 26.664587217674296 76.86305495520924 H 0.0 **** 0.06
5286 C 46.38457868453031 62.0172511407768 47.77173460828152 C 0.0 **** -0.24
5287 H 47.30910419372387 61.463229549395116 47.933387855959154 H 0.0 **** 0.06
5288 H 46.16945643524622 62.06141433468746 46.70422950656905 H 0.0 **** 0.06
5289 H 46.4959136699394 63.02884758475681 48.1626224537041 H 0.0 **** 0.06
5290 H 45.56653298547869 61.51608060350015 48.28789386951712 H 0.0 **** 0.06
5291 C 61.660361911560386 33.35544668629305 80.08717613953405 C 0.0 **** -0.24
5292 H 60.78672149718648 32.812675347870766 79.72894894570013 H 0.0 **** 0.06
5293 H 62.47015755455874 32.6522147026904 80.28298204621814 H 0.0 **** 0.06
5294 H 61.40768960961981 33.884184894153165 81.00646649994792 H 0.0 **** 0.06
5295 H 61.977206591415865 34.074035414921255 79.33068233954745 H 0.0 **** 0.06
5296 C 120.23813216424247 118.23560774466185 79.67916666913044 C 0.0 **** -0.24
5297 H 120.95503000526469 118.03748169745847 80.47598200819124 H 0.0 **** 0.06
5298 H 120.6326045780196 117.85998161217717 78.73480515157155 H 0.0 **** 0.06
5299 H 120.07062326036743 119.30976642127915 79.6012434691043 H 0.0 **** 0.06
5300 H 119.29604593785677 117.73656109992443 79.90463968110254 H 0.0 **** 0.06
5301 C 89.24787457157134 96.42465015818533 79.72430223450948 C 0.0 **** -0.24
5302 H 88.49408084600572 95.94127903493035 80.34653977546259 H 0.0 **** 0.06
5303 H 90.13591692774986 96.62942816962357 80.323077587613 H 0.0 **** 0.06
5304 H 88.84922000991565 97.36154736573673 79.33310230713582 H 0.0 **** 0.06
5305 H 89.51039682143647 95.76778482034848 78.89510737373189 H 0.0 **** 0.06
5306 C 10.664945946925712 100.54717725795487 82.03792014096709 C 0.0 **** -0.24
5307 H 11.045994780931053 100.66771048206223 81.02415457603834 H 0.0 **** 0.06
5308 H 11.387183549762227 100.95013545101386 82.74765787287498 H 0.0 **** 0.06
5309 H 10.507839723115353 99.4869305410713 82.24204215042877 H 0.0 **** 0.06
5310 H 9.720008076753714 101.07954564502472 82.13672468971075 H 0.0 **** 0.06
5311 C 28.572008054543858 52.41643481843883 74.05438766024398 C 0.0 **** -0.24
5312 H 29.078480050345973 53.229104036186186 74.57575991353681 H 0.0 **** 0.06
5313 H 27.49335224575978 52.531854003809855 74.1644114428486 H 0.0 **** 0.06
5314 H 28.881689304882542 51.462129960269436 74.4806996391113 H 0.0 **** 0.06
5315 H 28.835305127937858 52.444177596000884 72.99687778494669 H 0.0 **** 0.06
5316 C 88.26853627149694 95.08502869408971 83.2285873866611 C 0.0 **** -0.24
5317 H 87.66483517222085 94.73094974002964 84.06464315386353 H 0.0 **** 0.06
5318 H 89.32158931497162 94.88757204669318 83.43243626437373 H 0.0 **** 0.06
5319 H 88.1178667000334 96.15706037432514 83.10004981754781 H 0.0 **** 0.06
5320 H 87.97095261819953 94.56389264152281 82.31876416052734 H 0.0 **** 0.06
5321 C 32.6692684651679 118.34799888147452 97.02883810083162 C 0.0 **** -0.24
5322 H 33.265789569411254 119.14457502537539 97.47524736881502 H 0.0 **** 0.06
5323 H 33.181560229989174 117.39388412347418 97.15941145716491 H 0.0 **** 0.06
5324 H 32.535884926487796 118.54622571191814 95.96552297192329 H 0.0 **** 0.06
5325 H 31.695951805817742 118.30652031029015 97.51612574640828 H 0.0 **** 0.06
5326 C 82.19624331557506 53.924780184141234 38.539085687779874 C 0.0 **** -0.24
5327 H 82.8322841595666 54.50028697050545 39.21227745803536 H 0.0 **** 0.06
5328 H 81.16329189182662 54.25559031090999 38.644328795861696 H 0.0 **** 0.06
5329 H 82.26620544830558 52.866355669775906 38.79024695888759 H 0.0 **** 0.06
5330 H 82.5247178857561 54.07634129273128 37.51102985395886 H 0.0 **** 0.06
5331 C 94.40834453953852 24.96443940527694 61.34325991124914 C 0.0 **** -0.24
5332 H 95.29332404998902 24.680660014315848 61.91303940127826 H 0.0 **** 0.06
5333 H 94.6837183507566 25.703333164822567 60.589272824391465 H 0.0 **** 0.06
5334 H 93.6644704818332 25.391260228750077 62.01618376569761 H 0.0 **** 0.06
5335 H 93.99310685621433 24.083792714824355 60.85320256472692 H 0.0 **** 0.06
5336 C 30.865422683969626 116.43369642008162 29.10405968947279 C 0.0 **** -0.24
5337 H 30.311784755559557 115.9815117925167 28.280435196757253 H 0.0 **** 0.06
5338 H 30.192954878983898 117.05665755866758 29.694681105633208 H 0.0 **** 0.06
5339 H 31.673160313160537 117.04704140032638 28.705246495816425 H 0.0 **** 0.06
5340 H 31.282297329257887 115.64884155163404 29.735394394152678 H 0.0 **** 0.06
5341 C 43.51224940014586 81.3383416945041 13.73455982539673 C 0.0 **** -0.24
5342 H 44.041999373468514 80.42100152547758 13.475978774637042 H 0.0 **** 0.06
5343 H 44.112812533767396 82.19945927237507 13.439799544277662 H 0.0 **** 0.06
5344 H 43.33851228563077 81.366752815084 14.809793891872914 H 0.0 **** 0.06
5345 H 42.556341127211965 81.36514864375812 13.210784176594586 H 0.0 **** 0.06
5346 C 71.99276070348625 108.43508521030247 60.772618843077424 C 0.0 **** -0.24
5347 H 70.9197520466362 108.25908284797845 60.694774539617214 H 0.0 **** 0.06
5348 H 72.3859582536302 107.90577097623657 61.64048245543427 H 0.0 **** 0.06
5349 H 72.1786592720934 109.50288031509746 60.882874902401454 H 0.0 **** 0.06
5350 H 72.48574673516836 108.07188656685338 59.87043998603576 H 0.0 **** 0.06
5351 C 24.95312447741844 9.395070606739644 81.95952060695365 C 0.0 **** -0.24
5352 H 24.4899300019502 10.080763094383606 81.25104919691344 H 0.0 **** 0.06
5353 H 24.310717321182608 8.523281817197443 82.09416321927387 H 0.0 **** 0.06
5354 H 25.08955362848286 9.897835762097998 82.91680290397963 H 0.0 **** 0.06
5355 H 25.922780330612227 9.076203210770267 81.57510113881574 H 0.0 **** 0.06
5356 C 58.0614014616368 21.554721830356698 27.482530462008057 C 0.0 **** -0.24
5357 H 58.200163537807676 22.299441747085382 28.26618884059195 H 0.0 **** 0.06
5358 H 58.988639402635236 21.000964718712495 27.339167537335015 H 0.0 **** 0.06
5359 H 57.78747915031827 22.052999230321973 26.55265449042578 H 0.0 **** 0.06
5360 H 57.267409392212805 20.865839255632324 27.773596794820918 H 0.0 **** 0.06
5361 C 36.11149454927994 74.05430947905447 93.08363583670817 C 0.0 **** -0.24
5362 H 36.604371611989485 74.8135121246205 93.69233097311647 H 0.0 **** 0.06
5363 H 36.82447634006832 73.2668862214426 92.83825096399721 H 0.0 **** 0.06
5364 H 35.74107463313229 74.50967378914245 92.16584910057742 H 0.0 **** 0.06
5365 H 35.27667076086216 73.62880420345212 93.6414195652512 H 0.0 **** 0.06
5366 C 5.17398643502527 33.328835521028736 51.75733167808943 C 0.0 **** -0.24
5367 H 6.228953461535184 33.462372613556624 51.51651725849783 H 0.0 **** 0.06
5368 H 4.692778694027567 34.30432558879258 51.83055318532885 H 0.0 **** 0.06
5369 H 5.082634775319065 32.80553345968919 52.70875635552821 H 0.0 **** 0.06
5370 H 4.69448056244488 32.743084806252796 50.97273855040177 H 0.0 **** 0.06
5371 C 116.11896931348738 78.62963451332436 122.47757923379824 C 0.0 **** -0.24
5372 H 117.10469178907118 78.53091512186575 122.02222239820907 H 0.0 **** 0.06
5373 H 116.16436557264365 79.3612766677521 123.28477878336597 H 0.0 **** 0.06
5374 H 115.80458653955495 77.66575599569856 122.87674180121188 H 0.0 **** 0.06
5375 H 115.40331834986478 78.96173781859125 121.72499085827795 H 0.0 **** 0.06
5376 C 111.18472468450025 44.10760811606164 32.06614638867726 C 0.0 **** -0.24
5377 H 110.44176252127536 44.752150847403584 31.595010428812493 H 0.0 **** 0.06
5378 H 111.903285875861 43.77506510100628 31.317685279975386 H 0.0 **** 0.06
5379 H 110.68773119541996 43.241833399204666 32.504774692019076 H 0.0 **** 0.06
5380 H 111.70331501818026 44.66315415012559 32.84708477399309 H 0.0 **** 0.06
5381 C 72.76232969972983 103.68454288003659 16.21856494519932 C 0.0 **** -0.24
5382 H 73.13362156152024 103.22185130123864 17.133732176714716 H 0.0 **** 0.06
5383 H 71.70406225928937 103.9176837366789 16.333157512093237 H 0.0 **** 0.06
5384 H 72.8955607079535 102.99570994910295 15.384034626338746 H 0.0 **** 0.06
5385 H 73.31866314003008 104.60179154695925 16.024340483133415 H 0.0 **** 0.06
5386 C 76.1496425226305 60.52265122540221 92.34968691880266 C 0.0 **** -0.24
5387 H 76.6010053588567 59.535366371281235 92.25849337631084 H 0.0 **** 0.06
5388 H 76.3659064384859 61.10552521373156 91.45359147785226 H 0.0 **** 0.06
5389 H 76.55959829683252 61.031229648018275 93.2214164056877 H 0.0 **** 0.06
5390 H 75.07071461998686 60.418990106420615 92.46353359269708 H 0.0 **** 0.06
5391 C 122.10080157686848 47.84129944554596 106.03401157699736 C 0.0 **** -0.24
5392 H 122.92104753670488 48.25706974198857 105.44837108558201 H 0.0 **** 0.06
5393 H 121.15057743959288 48.14156072404555 105.59109685957316 H 0.0 **** 0.06
5394 H 122.15998877550344 48.21478046483307 107.05654224076616 H 0.0 **** 0.06
5395 H 122.17313581766724 46.7545289067331 106.03971984507771 H 0.0 **** 0.06
5396 C 4.7178934946259545 16.780923513755546 64.43692111833778 C 0.0 **** -0.24
5397 H 3.7102042168119453 16.45576314424799 64.17764289185808 H 0.0 **** 0.06
5398 H 5.308660720026197 15.918952045841092 64.74675881346317 H 0.0 **** 0.06
5399 H 4.667344394912561 17.499930460774056 65.25538247985074 H 0.0 **** 0.06
5400 H 5.182702317436835 17.24883556350321 63.5698668368704 H 0.0 **** 0.06
5401 C 40.36979855317301 57.08440850539907 43.565424680203904 C 0.0 **** -0.24
5402 H 40.84161526931596 56.7541661907525 44.49062957930553 H 0.0 **** 0.06
5403 H 39.902642129997744 56.23157664772506 43.07193619724793 H 0.0 **** 0.06
5404 H 41.123177825236176 57.51724382046473 42.90831790469956 H 0.0 **** 0.06
5405 H 39.61099828148793 57.83334544355782 43.79274549702876 H 0.0 **** 0.06
5406 C 96.23425608557517 42.41257336401328 8.733073547171031 C 0.0 **** -0.24
5407 H 95.85248774507619 42.31246483627686 9.748938364150774 H 0.0 **** 0.06
5408 H 95.91429276649643 43.36883437479278 8.318339267717619 H 0.0 **** 0.06
5409 H 95.846095376552 41.60075132992971 8.118464449646055 H 0.0 **** 0.06
5410 H 97.32343199894325 42.36926613130111 8.747752060251386 H 0.0 **** 0.06
5411 C 15.273715629022803 91.29556829989784 43.482261299400705 C 0.0 **** -0.24
5412 H 15.499439145784777 91.81548254211154 42.55092772113943 H 0.0 **** 0.06
5413 H 14.806788363259159 90.33662394440734 43.25817478840639 H 0.0 **** 0.06
5414 H 14.591430111128375 91.90140237942424 44.07977427078481 H 0.0 **** 0.06
5415 H 16.196069285750127 91.13071286854154 44.03921241764357 H 0.0 **** 0.06
5416 C 85.65959010336647 107.03736792384194 61.341282360982945 C 0.0 **** -0.24
5417 H 85.92904933482322 107.97154581669122 61.833629285350696 H 0.0 **** 0.06
5418 H 85.73510647855645 106.21614463555514 62.054405595592385 H 0.0 **** 0.06
5419 H 86.33755518739201 106.85797278701699 60.50664119381997 H 0.0 **** 0.06
5420 H 84.63670658936033 107.10422610949439 60.97136020550283 H 0.0 **** 0.06
5421 C 82.73176432851469 44.52254135517887 26.240163537240555 C 0.0 **** -0.24
5422 H 81.84163434320976 45.14289931564565 26.344229544424117 H 0.0 **** 0.06
5423 H 82.51300294340535 43.51313112269048 26.5881600242286 H 0.0 **** 0.06
5424 H 83.54148449878505 44.94564025338792 26.834732037193362 H 0.0 **** 0.06
5425 H 83.0301271054945 44.48985224592883 25.19195017840932 H 0.0 **** 0.06
5426 C 84.18005208287136 60.37596429296949 58.614154678546356 C 0.0 **** -0.24
5427 H 85.1851938141819 60.16175316429601 58.25069927243294 H 0.0 **** 0.06
5428 H 84.04872348134612 59.928468863802244 59.59999941279091 H 0.0 **** 0.06
5429 H 83.44748452389175 59.95796921266672 57.92478545226015 H 0.0 **** 0.06
5430 H 84.04045130603473 61.45429733722529 58.6829844547708 H 0.0 **** 0.06
5431 C 40.083065298293235 60.83926451491553 115.0100301916928 C 0.0 **** -0.24
5432 H 39.09605945434204 61.04588215761132 114.59606310300296 H 0.0 **** 0.06
5433 H 40.6843619037445 60.31382800607926 114.26755390140096 H 0.0 **** 0.06
5434 H 39.98084142395925 60.21794363385581 115.90030083892105 H 0.0 **** 0.06
5435 H 40.56899277555928 61.777176385017526 115.27608254667274 H 0.0 **** 0.06
5436 C 30.482734180909603 94.24547827485611 70.11865269782407 C 0.0 **** -0.24
5437 H 31.401915810077114 93.86815286526411 70.56790413333732 H 0.0 **** 0.06
5438 H 29.817877353677446 93.41066621484512 69.89635477313675 H 0.0 **** 0.06
5439 H 30.721753766442745 94.7750679299503 69.19684657903514 H 0.0 **** 0.06
5440 H 29.991565527096483 94.92598892112437 70.8131637950496 H 0.0 **** 0.06
5441 C 64.52930983347039 89.57736411735596 67.00470520641807 C 0.0 **** -0.24
5442 H 64.86065584768039 90.19004533174717 67.84318876871299 H 0.0 **** 0.06
5443 H 63.54868682698747 89.91921422088973 66.67161628593294 H 0.0 **** 0.06
5444 H 64.4640000146151 88.53567356868786 67.31876659032395 H 0.0 **** 0.06
5445 H 65.2425666487517 89.66654839726772 66.18561059581967 H 0.0 **** 0.06
5446 C 120.50963400634532 0.3612395494107883 69.78843817069446 C 0.0 **** -0.24
5447 H 120.4124210567615 -0.6891199266544508 70.06386832238485 H 0.0 **** 0.06
5448 H 119.73982268947117 0.9419032996146885 70.29770365351496 H 0.0 **** 0.06
5449 H 120.3911378317772 0.466449540222321 68.71008821125017 H 0.0 **** 0.06
5450 H 121.49393848729662 0.7233078410106746 70.08338783698306 H 0.0 **** 0.06
5451 C 13.90957888329217 71.05679217010936 57.20028211577073 C 0.0 **** -0.24
5452 H 14.136517311805491 72.09361743500261 56.949737679757675 H 0.0 **** 0.06
5453 H 12.840897378361461 70.87901932671082 57.07933668218254 H 0.0 **** 0.06
5454 H 14.196639016381425 70.86239236545288 58.233824733135634 H 0.0 **** 0.06
5455 H 14.465492668681037 70.39374925053824 56.536853055358335 H 0.0 **** 0.06
5456 C 13.28608275752407 15.524203338401435 97.18644681125195 C 0.0 **** -0.24
5457 H 12.75679508735169 14.678073763825978 96.75010480803266 H 0.0 **** 0.06
5458 H 13.233057595729917 16.37576663271733 96.5068553806849 H 0.0 **** 0.06
5459 H 14.329484331953097 15.254987912369813 97.3497603841956 H 0.0 **** 0.06
5460 H 12.826104894462901 15.789892246728698 98.13870777703818 H 0.0 **** 0.06
5461 C 38.695726874251264 82.74752910664984 60.69304190752782 C 0.0 **** -0.24
5462 H 39.48141831913915 82.12205094832939 61.118398501104515 H 0.0 **** 0.06
5463 H 38.99906759670962 83.79397019478552 60.74264697697573 H 0.0 **** 0.06
5464 H 37.77500021936552 82.60809097851165 61.25724968865688 H 0.0 **** 0.06
5465 H 38.5318981485881 82.46650500741316 59.65256521373748 H 0.0 **** 0.06
5466 C 7.1997826081345195 23.091560199232532 78.77732435506988 C 0.0 **** -0.24
5467 H 7.744851849249386 22.743873401434314 77.9004432481837 H 0.0 **** 0.06
5468 H 6.216805044394292 23.453909568773014 78.47473845283469 H 0.0 **** 0.06
5469 H 7.755136934544396 23.90015308429514 79.2529789240094 H 0.0 **** 0.06
5470 H 7.0824018704483045 22.26729440533498 79.48212425189402 H 0.0 **** 0.06
5471 C 63.88580930744561 63.2233503145305 6.066483656121193 C 0.0 **** -0.24
5472 H 63.32196787578198 62.828470593342296 5.222229611475427 H 0.0 **** 0.06
5473 H 63.62020613636196 64.26936762044485 6.222477027944279 H 0.0 **** 0.06
5474 H 64.95298187001359 63.147340684447975 5.857415723593931 H 0.0 **** 0.06
5475 H 63.649102820088416 62.64964345300039 6.962420368271381 H 0.0 **** 0.06
5476 C 38.511793048930734 55.608521642282255 90.6107081847968 C 0.0 **** -0.24
5477 H 39.18176507232936 55.737984348484474 91.46057465266315 H 0.0 **** 0.06
5478 H 37.77351894643072 56.41083530433701 90.60468284086298 H 0.0 **** 0.06
5479 H 38.003190184225346 54.647307857773455 90.69326355514931 H 0.0 **** 0.06
5480 H 39.08767351394266 55.63640633482038 89.68590537374371 H 0.0 **** 0.06
5481 C 28.6526549166056 28.555072111617903 11.993927159556677 C 0.0 **** -0.24
5482 H 28.052260128642757 28.97377807042261 11.186254856626249 H 0.0 **** 0.06
5483 H 28.05451945430312 27.838959561160323 12.557051382171267 H 0.0 **** 0.06
5484 H 28.981074673762436 29.35629435715191 12.656620568525057 H 0.0 **** 0.06
5485 H 29.52396129420302 28.050011129687107 11.574772256247059 H 0.0 **** 0.06
5486 C 88.41056009485135 115.19404029442887 67.7201479884036 C 0.0 **** -0.24
5487 H 88.97932736934351 115.50857075113437 68.5954956561213 H 0.0 **** 0.06
5488 H 87.7963883594233 114.33118782733163 67.97722543252422 H 0.0 **** 0.06
5489 H 89.0987447568483 114.92674969743568 66.9184792816967 H 0.0 **** 0.06
5490 H 87.76960067740626 116.01197145873827 67.39091133756125 H 0.0 **** 0.06
5491 C 120.8551683806931 93.5688825597731 52.766941712223336 C 0.0 **** -0.24
5492 H 120.03208589264057 93.92318062562333 53.38786139422 H 0.0 **** 0.06
5493 H 120.49485105785743 93.39737622746415 51.75192239607579 H 0.0 **** 0.06
5494 H 121.2435111106534 92.63734529938054 53.17652599794871 H 0.0 **** 0.06
5495 H 121.64666679045786 94.3178519759646 52.7503228153524 H 0.0 **** 0.06
5496 C 81.64001100580029 77.38503984982185 64.53116885614517 C 0.0 **** -0.24
5497 H 81.42655002345776 78.2124222606844 63.853401224939546 H 0.0 **** 0.06
5498 H 81.0092104254135 76.53380657615008 64.27491571053804 H 0.0 **** 0.06
5499 H 81.43544821744607 77.69381095727482 65.55658517608995 H 0.0 **** 0.06
5500 H 82.6882317886423 77.10218358274776 64.43916014070186 H 0.0 **** 0.06
5501 C 109.10489287526647 63.122059269239 115.1773055084667 C 0.0 **** -0.24
5502 H 110.04915133331068 62.849074324390074 114.7056145681459 H 0.0 **** 0.06
5503 H 109.18310200836927 64.12822449446196 115.59021718071926 H 0.0 **** 0.06
5504 H 108.88274197095069 62.41652130848405 115.97829260253891 H 0.0 **** 0.06
5505 H 108.30734766383557 63.093313786225735 114.43541776931508 H 0.0 **** 0.06
5506 C 116.8465599447417 111.99456831535866 117.65481463531546 C 0.0 **** -0.24
5507 H 116.87253634882096 112.14135766719653 118.73511103274045 H 0.0 **** 0.06
5508 H 117.109893470359 110.96379581401993 117.42133971977935 H 0.0 **** 0.06
5509 H 117.55940531021582 112.66911218637742 117.18072902101471 H 0.0 **** 0.06
5510 H 115.84308740826927 112.20694837812727 117.28398072524791 H 0.0 **** 0.06
5511 C 91.99433843985497 72.91095063761702 21.761757220274582 C 0.0 **** -0.24
5512 H 91.13355259719393 73.57796720575902 21.82216283661832 H 0.0 **** 0.06
5513 H 92.87629212923358 73.41939763463512 22.15027417719015 H 0.0 **** 0.06
5514 H 92.16349563323121 72.63127691537775 20.72160789554031 H 0.0 **** 0.06
5515 H 91.80115460917676 72.01466355937632 22.352222017425596 H 0.0 **** 0.06
5516 C 101.22875861741858 84.36895053150417 118.15748280909186 C 0.0 **** -0.24
5517 H 102.07979606536492 84.79493764829473 118.6890722931796 H 0.0 **** 0.06
5518 H 101.14217628848624 83.30967700466579 118.40158787409482 H 0.0 **** 0.06
5519 H 101.37687580765632 84.48358395753627 117.08398778368515 H 0.0 **** 0.06
5520 H 100.31826110506526 84.88635965806577 118.45705769726179 H 0.0 **** 0.06
5521 C 72.22330282770247 26.93796127830766 122.64875113942172 C 0.0 **** -0.24
5522 H 71.80429584772816 26.950603769608534 123.65564563666253 H 0.0 **** 0.06
5523 H 73.27958024194527 26.673062817679913 122.69980974276719 H 0.0 **** 0.06
5524 H 72.11648236587348 27.9253357910182 122.19942264491199 H 0.0 **** 0.06
5525 H 71.69262989904803 26.202868073135917 122.04424364334665 H 0.0 **** 0.06
5526 C 80.82537867938439 102.48965354472443 22.711648573243103 C 0.0 **** -0.24
5527 H 80.64383201236237 101.72451047775411 23.46591111378079 H 0.0 **** 0.06
5528 H 80.386591737202 103.43263737314032 23.037697105647553 H 0.0 **** 0.06
5529 H 80.3718438359256 102.18423260365432 21.76841405570331 H 0.0 **** 0.06
5530 H 81.89911006506767 102.61675963443304 22.573246664031423 H 0.0 **** 0.06
5531 C 3.93549201148835 11.595463688493869 86.3110510609705 C 0.0 **** -0.24
5532 H 4.43488989016862 10.646520480844952 86.11887248413893 H 0.0 **** 0.06
5533 H 4.053854562420469 11.863047553869315 87.36071637524981 H 0.0 **** 0.06
5534 H 2.874950158804623 11.501781452865075 86.07756927789023 H 0.0 **** 0.06
5535 H 4.377523355213171 12.37197655660653 85.68523695761348 H 0.0 **** 0.06
5536 C 45.730454683391 39.820407015466316 6.52607496260481 C 0.0 **** -0.24
5537 H 44.90132808373261 40.498477089156324 6.322641399580618 H 0.0 **** 0.06
5538 H 45.34131045603121 38.819699501786374 6.717233125326274 H 0.0 **** 0.06
5539 H 46.28052679637398 40.17009718232691 7.398895968090159 H 0.0 **** 0.06
5540 H 46.396480103584196 39.79279164942477 5.663087873584772 H 0.0 **** 0.06
5541 C 96.32315804779307 7.093923013384426 94.68317050481653 C 0.0 **** -0.24
5542 H 97.37241099246151 7.036078609111428 94.97470691278659 H 0.0 **** 0.06
5543 H 95.70037337593195 7.139906075394208 95.57681359119027 H 0.0 **** 0.06
5544 H 96.05977680805299 6.210706832501813 94.1012481492356 H 0.0 **** 0.06
5545 H 96.16256771661611 7.987014800117038 94.08082107903479 H 0.0 **** 0.06
5546 C 64.05631680766587 111.43889504318692 87.62709620290147 C 0.0 **** -0.24
5547 H 64.64544406150762 110.54272967299076 87.4299670839853 H 0.0 **** 0.06
5548 H 63.25942170368112 111.5185620822193 86.88750746534822 H 0.0 **** 0.06
5549 H 64.69941085562309 112.31660554775327 87.56536755881086 H 0.0 **** 0.06
5550 H 63.62214611238765 111.37566442769403 88.62477391259898 H 0.0 **** 0.06
5551 C 75.23890455061257 8.74171672155893 119.30148390256957 C 0.0 **** -0.24
5552 H 76.25370813558851 8.39979312882727 119.50395624442766 H 0.0 **** 0.06
5553 H 75.27057856464461 9.754276755295876 118.89860043118541 H 0.0 **** 0.06
5554 H 74.66302135208184 8.73545783510724 120.22739456055875 H 0.0 **** 0.06
5555 H 74.76955610865937 8.077234236956514 118.5766451981124 H 0.0 **** 0.06
5556 C 3.8231338069955285 68.6539182411855 50.1306799406485 C 0.0 **** -0.24
5557 H 4.37056301320203 67.89287922695001 49.574158567801476 H 0.0 **** 0.06
5558 H 4.5038342831910825 69.16243193050974 50.81502483840837 H 0.0 **** 0.06
5559 H 3.021607543749454 68.18210284750944 50.699321330012374 H 0.0 **** 0.06
5560 H 3.3982232202827873 69.37754636454804 49.43583578555803 H 0.0 **** 0.06
5561 C 19.852197671941255 30.84091644668095 114.56793485602051 C 0.0 **** -0.24
5562 H 20.40747383032334 30.77157087861471 113.63245063988808 H 0.0 **** 0.06
5563 H 20.393806962586638 31.48045653776532 115.26583388193413 H 0.0 **** 0.06
5564 H 19.740573725233673 29.845346679205676 114.99789425291456 H 0.0 **** 0.06
5565 H 18.86643127724345 31.26567908774419 114.37439021690656 H 0.0 **** 0.06
5566 C 121.40451061818533 121.29547811688282 0.5338505435730099 C 0.0 **** -0.24
5567 H 121.93534278163843 122.24781866840854 0.5411207190431071 H 0.0 **** 0.06
5568 H 121.40841731709224 120.87067871428843 1.5373889355330164 H 0.0 **** 0.06
5569 H 121.90093238504926 120.61003145776999 -0.15346922783703576 H 0.0 **** 0.06
5570 H 120.37596465275396 121.4548337436865 0.21011436930888294 H 0.0 **** 0.06
5571 C 31.30674353325537 4.220576635395872 5.393119035380806 C 0.0 **** -0.24
5572 H 30.980935955463337 5.24671738752582 5.227011749188335 H 0.0 **** 0.06
5573 H 31.49375733701514 3.7388445596104987 4.433598242378608 H 0.0 **** 0.06
5574 H 30.52973138184366 3.674583137352869 5.928913204775341 H 0.0 **** 0.06
5575 H 32.222448959718676 4.221821995571958 5.984322170200727 H 0.0 **** 0.06
5576 C 53.12962829873252 92.39493053650702 88.9695597218869 C 0.0 **** -0.24
5577 H 53.55871496108721 91.77664710995856 89.75704831363609 H 0.0 **** 0.06
5578 H 53.07717356412095 91.82129348569353 88.04461209018905 H 0.0 **** 0.06
5579 H 53.75502672440624 93.2742724988965 88.81745903832487 H 0.0 **** 0.06
5580 H 52.12670137337988 92.708852109731 89.26066625877013 H 0.0 **** 0.06
5581 C 67.70275363103599 57.46036241474434 54.92545242046657 C 0.0 **** -0.24
5582 H 68.60842351061018 57.92548879370108 54.53702531794204 H 0.0 **** 0.06
5583 H 67.72063190611482 56.392471222634214 54.70613316067124 H 0.0 **** 0.06
5584 H 66.83035070516809 57.9142352955208 54.45454615249531 H 0.0 **** 0.06
5585 H 67.65160840225093 57.60925434712118 56.00410505075763 H 0.0 **** 0.06
5586 C 84.26798590088094 25.682239863945085 102.29073289339749 C 0.0 **** -0.24
5587 H 84.71498972415452 25.660149316338618 101.2961114575674 H 0.0 **** 0.06
5588 H 83.19169361645902 25.82833206867582 102.20172114516294 H 0.0 **** 0.06
5589 H 84.70093338434117 26.501539447247012 102.86414440770363 H 0.0 **** 0.06
5590 H 84.46594109400723 24.73808557916624 102.79857399078497 H 0.0 **** 0.06
5591 C 6.8153342326274355 96.64227478945358 110.20936344771224 C 0.0 **** -0.24
5592 H 6.089574735626485 96.37732048438767 110.97832866490148 H 0.0 **** 0.06
5593 H 7.804857906776419 96.29984086162162 110.51135352274864 H 0.0 **** 0.06
5594 H 6.8275755963218785 97.72398005339153 110.07976429443838 H 0.0 **** 0.06
5595 H 6.53661871372401 96.166602400264 109.26935624740992 H 0.0 **** 0.06
5596 C 32.95775570194829 5.48575046680304 93.04150972613951 C 0.0 **** -0.24
5597 H 32.42583186714032 5.008588065019865 92.2184707229161 H 0.0 **** 0.06
5598 H 33.36959980600699 6.4371033823611015 92.70452871626063 H 0.0 **** 0.06
5599 H 33.76625217720661 4.8362937052810935 93.37593228640554 H 0.0 **** 0.06
5600 H 32.26667653596425 5.660077397801103 93.86693501267294 H 0.0 **** 0.06
5601 C 15.444376449899071 89.20885182896382 40.240555079405965 C 0.0 **** -0.24
5602 H 15.299436868563681 89.83902133673786 41.11748266127569 H 0.0 **** 0.06
5603 H 15.318123079460857 89.80736924448456 39.337820802898875 H 0.0 **** 0.06
5604 H 14.710546533138242 88.40292108116742 40.24721920902289 H 0.0 **** 0.06
5605 H 16.448618255719445 88.78529943764735 40.25882810849674 H 0.0 **** 0.06
5606 C 50.18556793457961 59.513427614966254 27.113257991652915 C 0.0 **** -0.24
5607 H 49.480691189533275 59.676658967285995 26.298206819989765 H 0.0 **** 0.06
5608 H 49.76242552428167 58.799378782472694 27.821209971911436 H 0.0 **** 0.06
5609 H 50.37888851789933 60.45810479325936 27.62214240495952 H 0.0 **** 0.06
5610 H 51.11936004275432 59.11935907997198 26.712933891729584 H 0.0 **** 0.06
5611 C 46.92777585356981 90.51582128930545 61.47671217835879 C 0.0 **** -0.24
5612 H 47.178360656093275 91.4583783747886 61.96353712860982 H 0.0 **** 0.06
5613 H 45.8435587182762 90.41587814370507 61.41707364819917 H 0.0 **** 0.06
5614 H 47.33820877372307 89.68825675855197 62.054158989818724 H 0.0 **** 0.06
5615 H 47.35025570629847 90.50349691892791 60.471840529803636 H 0.0 **** 0.06
5616 C 23.777389923259243 98.08716846936767 120.71812785866734 C 0.0 **** -0.24
5617 H 24.157968205981227 98.61924843628049 121.59095963069385 H 0.0 **** 0.06
5618 H 23.009019016609408 97.38033137097031 121.03113678640929 H 0.0 **** 0.06
5619 H 24.59322580475795 97.54850756271253 120.23624367851832 H 0.0 **** 0.06
5620 H 23.349843280897545 98.80272589233758 120.0162150872825 H 0.0 **** 0.06
5621 C 17.124944367046208 105.86486801063461 7.425172616165156 C 0.0 **** -0.24
5622 H 17.193648534823883 104.84875964008441 7.811591504745564 H 0.0 **** 0.06
5623 H 16.084211599931578 106.18876497581329 7.440079026818324 H 0.0 **** 0.06
5624 H 17.49888512651799 105.89037643669403 6.401871227850705 H 0.0 **** 0.06
5625 H 17.7221251164541 106.5311618679489 8.047049398874037 H 0.0 **** 0.06
5626 C 60.4239375186512 76.04413854043005 40.628875677313914 C 0.0 **** -0.24
5627 H 61.286381152389424 75.84215502642675 39.99456999101085 H 0.0 **** 0.06
5628 H 59.81299139553039 75.14462426193913 40.70991316018308 H 0.0 **** 0.06
5629 H 59.83088747163373 76.84724253783835 40.19118771917448 H 0.0 **** 0.06
5630 H 60.76410880869065 76.34259013105782 41.620130049371056 H 0.0 **** 0.06
5631 C 52.20526220160116 87.36392623143362 53.81389168322155 C 0.0 **** -0.24
5632 H 52.99280659216245 86.64645976372876 53.58361614250243 H 0.0 **** 0.06
5633 H 52.386231727316755 88.28957733793442 53.266742493133854 H 0.0 **** 0.06
5634 H 52.2034052276789 87.56837110497361 54.88418413451547 H 0.0 **** 0.06
5635 H 51.24055948197905 86.95026318390555 53.521360261456174 H 0.0 **** 0.06
5636 C 72.39179263943203 62.63146030321774 42.288651467696155 C 0.0 **** -0.24
5637 H 73.33355120590642 62.089031465651594 42.36992795769149 H 0.0 **** 0.06
5638 H 72.52191921406785 63.488197963267915 41.625905739452236 H 0.0 **** 0.06
5639 H 72.0853748964517 62.97800401410077 43.2753300981972 H 0.0 **** 0.06
5640 H 71.62624208161179 61.97034362412588 41.881732257181824 H 0.0 **** 0.06
5641 C 49.834182400006114 119.00812739547806 116.7379356684382 C 0.0 **** -0.24
5642 H 50.863132978739316 118.65427322001375 116.80149707191583 H 0.0 **** 0.06
5643 H 49.82195489273829 120.09728319916337 116.78185907518298 H 0.0 **** 0.06
5644 H 49.25956419584924 118.60396907185029 117.57113977242788 H 0.0 **** 0.06
5645 H 49.39417736375657 118.6770216910133 115.79801459149236 H 0.0 **** 0.06
5646 C 91.37143185553649 20.482920902529997 103.63053338790874 C 0.0 **** -0.24
5647 H 90.94905927545801 21.14959878545099 102.87791515841585 H 0.0 **** 0.06
5648 H 91.57277351933027 21.045565828554885 104.54179587348807 H 0.0 **** 0.06
5649 H 92.30016019158191 20.05362068421792 103.25481923647499 H 0.0 **** 0.06
5650 H 90.66223052770681 19.683263825685657 103.84503323244826 H 0.0 **** 0.06
5651 C 68.57408700123565 86.83759890920544 10.46052090351887 C 0.0 **** -0.24
5652 H 69.57721003749506 87.16007983327069 10.740223206068322 H 0.0 **** 0.06
5653 H 68.21929540171016 87.43906993762056 9.623855123741379 H 0.0 **** 0.06
5654 H 67.9024151414149 86.96281079665818 11.30896591995625 H 0.0 **** 0.06
5655 H 68.59860000863736 85.78716056814073 10.169010040636493 H 0.0 **** 0.06
5656 C 21.942377696625343 73.81837978882456 55.04767014072573 C 0.0 **** -0.24
5657 H 21.706542178849944 72.88111737416088 54.54548013488335 H 0.0 **** 0.06
5658 H 21.736824333820294 74.65214389017547 54.37699785255077 H 0.0 **** 0.06
5659 H 22.997061585247934 73.8264903682873 55.32437086704678 H 0.0 **** 0.06
5660 H 21.33102005995515 73.91308551851179 55.9451665479117 H 0.0 **** 0.06
5661 C 94.84756719839851 84.53076378312065 17.39588092395607 C 0.0 **** -0.24
5662 H 94.21994684292764 85.09356991375407 16.703527557470522 H 0.0 **** 0.06
5663 H 94.24678139930433 83.76631941115755 17.889456046153043 H 0.0 **** 0.06
5664 H 95.26019793098345 85.207681731294 18.143776694723016 H 0.0 **** 0.06
5665 H 95.6600681912285 84.05724198041415 16.846329040409074 H 0.0 **** 0.06
5666 C 12.977166012841877 72.62072026632757 2.630408950381195 C 0.0 **** -0.24
5667 H 12.915521798034064 72.34361452759362 1.5778332753030213 H 0.0 **** 0.06
5668 H 12.833352290834057 71.734447081045 3.2480573604554195 H 0.0 **** 0.06
5669 H 12.20216168698596 73.35279612007264 2.8587166400395745 H 0.0 **** 0.06
5670 H 13.956453230535061 73.05235257712707 2.835799283292971 H 0.0 **** 0.06
5671 C 57.89617935324907 25.81048033881428 71.74154858385995 C 0.0 **** -0.24
5672 H 57.80990692661564 26.47981926564136 70.88495377864234 H 0.0 **** 0.06
5673 H 56.93429084385491 25.329050550351255 71.92306466126288 H 0.0 **** 0.06
5674 H 58.18829873351655 26.38245046254589 72.621997645709 H 0.0 **** 0.06
5675 H 58.64932039438156 25.051184901684223 71.53388762925934 H 0.0 **** 0.06
5676 C 77.07614662449274 20.145544025235637 110.03829258796938 C 0.0 **** -0.24
5677 H 76.25102344217632 19.77216254318185 110.64507603378323 H 0.0 **** 0.06
5678 H 76.96667401802773 19.78480470775324 109.01526567937793 H 0.0 **** 0.06
5679 H 78.0196833543728 19.78798855528902 110.45075187263595 H 0.0 **** 0.06
5680 H 77.06619081264148 21.23530534089238 110.04321839788432 H 0.0 **** 0.06
5681 C 25.556522515408716 9.531537244035263 121.6570249109787 C 0.0 **** -0.24
5682 H 24.728858458184476 10.202411495738403 121.42332603278629 H 0.0 **** 0.06
5683 H 25.771022304000013 9.579686307443325 122.72483138305856 H 0.0 **** 0.06
5684 H 26.43959366043333 9.834804371696066 121.0938210577394 H 0.0 **** 0.06
5685 H 25.284950284893995 8.5117865526027 121.38523979901032 H 0.0 **** 0.06
5686 C 39.00772722697177 45.99097509452929 83.41935992592795 C 0.0 **** -0.24
5687 H 38.33825893628841 45.13666743646348 83.3201896229358 H 0.0 **** 0.06
5688 H 40.000344383674914 45.643702648544775 83.70615804254851 H 0.0 **** 0.06
5689 H 38.62378190148121 46.66765048399071 84.1830899570457 H 0.0 **** 0.06
5690 H 39.06836572328933 46.516644600976406 82.46528351789306 H 0.0 **** 0.06
5691 C 27.451523176593795 9.233052336612673 62.382135391497435 C 0.0 **** -0.24
5692 H 27.15058971976491 8.288903257767998 61.927341217914424 H 0.0 **** 0.06
5693 H 27.550137973177236 9.100927287365437 63.45958154824525 H 0.0 **** 0.06
5694 H 26.696724306776566 9.991720579991153 62.175833965933116 H 0.0 **** 0.06
5695 H 28.407462972333086 9.54854552686544 61.96539779648952 H 0.0 **** 0.06
5696 C 34.70813518932833 50.33391597476606 55.72542939893333 C 0.0 **** -0.24
5697 H 35.05208669254485 49.8695750538902 54.801218924790646 H 0.0 **** 0.06
5698 H 35.137702682290296 49.80797008270309 56.57735178440515 H 0.0 **** 0.06
5699 H 33.620772036991895 50.28126137634854 55.77539909901961 H 0.0 **** 0.06
5700 H 35.022952508560394 51.37717091838002 55.74575908707078 H 0.0 **** 0.06
5701 C 111.26532483826159 1.9866523814592512 1.9820376689454804 C 0.0 **** -0.24
5702 H 111.72527127210499 2.96406089338538 2.1283934642623876 H 0.0 **** 0.06
5703 H 111.14532251745808 1.7980511531943506 0.9141541201868506 H 0.0 **** 0.06
5704 H 110.28963913711092 1.968614458266515 2.4663475955188687 H 0.0 **** 0.06
5705 H 111.90274466761886 1.2169505780409224 2.417825753795796 H 0.0 **** 0.06
5706 C 106.8563952227961 101.22508663428374 83.09445496880252 C 0.0 **** -0.24
5707 H 107.30190503093812 102.07805190622622 83.60553063453924 H 0.0 **** 0.06
5708 H 106.07411164111403 101.57461024713842 82.41905886798185 H 0.0 **** 0.06
5709 H 106.42494341765493 100.54532875713838 83.82902877837259 H 0.0 **** 0.06
5710 H 107.62327835641537 100.70257281901937 82.52216419335002 H 0.0 **** 0.06
5711 C 121.72077776242003 94.77238842087539 65.25393469791351 C 0.0 **** -0.24
5712 H 121.75785087781124 93.69071013422541 65.3838377661983 H 0.0 **** 0.06
5713 H 121.52531752176226 95.24640181756945 66.2161393321737 H 0.0 **** 0.06
5714 H 120.92303891190723 95.02674163091098 64.55467479752292 H 0.0 **** 0.06
5715 H 122.67421820122246 95.12478906791887 64.86206588054233 H 0.0 **** 0.06
5716 C 114.94289025667621 117.5546321988932 51.305229977047574 C 0.0 **** -0.24
5717 H 114.4814751935626 118.43703461681248 50.86284531002431 H 0.0 **** 0.06
5718 H 114.17472425400106 116.80853430497268 51.51107970503531 H 0.0 **** 0.06
5719 H 115.43845996565145 117.83228554395933 52.23571126833853 H 0.0 **** 0.06
5720 H 115.6748887861608 117.14162649978971 50.61148899475642 H 0.0 **** 0.06
5721 C 3.1914247047931195 26.35697419788351 90.05671852747713 C 0.0 **** -0.24
5722 H 2.980618279804366 25.887397093289046 89.0957319813833 H 0.0 **** 0.06
5723 H 3.077466554551318 25.621393639473787 90.8534455523789 H 0.0 **** 0.06
5724 H 2.494973424205952 27.179307628541352 90.21924990576267 H 0.0 **** 0.06
5725 H 4.211971575636042 26.739341676674677 90.05786024821879 H 0.0 **** 0.06
5726 C 2.4092893188648503 19.089359717799738 92.78598414129792 C 0.0 **** -0.24
5727 H 3.1040935607220064 19.162799011388103 93.62320927223016 H 0.0 **** 0.06
5728 H 1.409349524929553 18.87194797983389 93.16241569593635 H 0.0 **** 0.06
5729 H 2.7291539904082924 18.287886452403967 92.11938127779933 H 0.0 **** 0.06
5730 H 2.3969338448009836 20.032629102066977 92.24150526797575 H 0.0 **** 0.06
5731 C 63.09936754090043 20.41050831624601 52.63263117108551 C 0.0 **** -0.24
5732 H 62.68300833534104 19.48141827153691 52.244154923313914 H 0.0 **** 0.06
5733 H 64.06988943500073 20.210980928614276 53.08696057341376 H 0.0 **** 0.06
5734 H 62.425274505609394 20.825483140578 53.382267502608784 H 0.0 **** 0.06
5735 H 63.21875162508982 21.123644279597826 51.817808741276394 H 0.0 **** 0.06
5736 C 40.183162332543446 86.82062956827082 93.94739967932304 C 0.0 **** -0.24
5737 H 40.41227423713684 86.70963288460399 95.00676861568422 H 0.0 **** 0.06
5738 H 40.946459733563785 87.43841196402042 93.47299669989644 H 0.0 **** 0.06
5739 H 39.20888771894181 87.29612726810961 93.83489174036242 H 0.0 **** 0.06
5740 H 40.165027640531065 85.83834615634925 93.47494166134908 H 0.0 **** 0.06
5741 C 80.9079790028552 117.86218165717379 96.7280708937059 C 0.0 **** -0.24
5742 H 81.74489400166502 118.04775463790234 97.40183355418816 H 0.0 **** 0.06
5743 H 79.974076663554 117.90344733663926 97.2889984438352 H 0.0 **** 0.06
5744 H 81.01808584675229 116.8769036794482 96.27606440175475 H 0.0 **** 0.06
5745 H 80.89746583097991 118.62206346267372 95.946448693317 H 0.0 **** 0.06
5746 C 16.200654849937877 79.09775806885631 115.73801197556887 C 0.0 **** -0.24
5747 H 16.125253043911883 78.24820732206115 116.41743914440298 H 0.0 **** 0.06
5748 H 16.369271679267655 80.00884322094069 116.31379270379381 H 0.0 **** 0.06
5749 H 15.273765085993361 79.19251254422977 115.17156503892605 H 0.0 **** 0.06
5750 H 17.032047570852797 78.94110876464853 115.0516307405838 H 0.0 **** 0.06
5751 C 27.302086181503284 9.845723240521124 35.320863648600465 C 0.0 **** -0.24
5752 H 27.383674676134206 10.45931281331437 36.21849515803207 H 0.0 **** 0.06
5753 H 27.240474107478065 10.491933715575414 34.44444926008045 H 0.0 **** 0.06
5754 H 26.405325570132277 9.229175522032733 35.38179345597301 H 0.0 **** 0.06
5755 H 28.179626709327124 9.204570478520907 35.23885831647395 H 0.0 **** 0.06
5756 C 77.42685407131779 62.467049875679066 119.26284461288488 C 0.0 **** -0.24
5757 H 77.7295565424929 62.70040238953973 120.28357667386311 H 0.0 **** 0.06
5758 H 77.9718978831103 63.10620241924366 118.56756520970868 H 0.0 **** 0.06
5759 H 76.35689094385131 62.63997234753765 119.15255959121033 H 0.0 **** 0.06
5760 H 77.65087290926039 61.422467129011295 119.04747852119246 H 0.0 **** 0.06
5761 C 63.27735845510762 110.77777012067031 13.667770704408895 C 0.0 **** -0.24
5762 H 64.09685336698254 111.11392417434337 14.303407156095432 H 0.0 **** 0.06
5763 H 63.18003236912537 111.45038298609202 12.815190073168651 H 0.0 **** 0.06
5764 H 62.35044706653716 110.77962771347705 14.240652817064984 H 0.0 **** 0.06
5765 H 63.48371337667672 109.76756984790666 13.313322938502523 H 0.0 **** 0.06
5766 C 94.45682398650499 22.630583796650512 78.33579419891277 C 0.0 **** -0.24
5767 H 95.33232281858668 22.715185562983834 78.97920265315275 H 0.0 **** 0.06
5768 H 94.72904857661715 22.90003044916415 77.31513930026802 H 0.0 **** 0.06
5769 H 93.67661779998753 23.303346016832336 78.69349029355595 H 0.0 **** 0.06
5770 H 94.08926090635691 21.605173814960608 78.355154368157 H 0.0 **** 0.06
5771 C 25.323254536028287 93.78860840793104 101.00428956041168 C 0.0 **** -0.24
5772 H 24.417634319093793 93.56170125188217 100.44112410283088 H 0.0 **** 0.06
5773 H 25.997318754907695 92.9325478779021 100.96849922563106 H 0.0 **** 0.06
5774 H 25.062284389852664 94.00241070011705 102.04023127208231 H 0.0 **** 0.06
5775 H 25.81572097048874 94.65742002290276 100.5663701900427 H 0.0 **** 0.06
5776 C 121.03090234186831 20.584289372696105 29.72600578764039 C 0.0 **** -0.24
5777 H 122.09784779239754 20.510208800612077 29.937627227262084 H 0.0 **** 0.06
5778 H 120.88678025819108 20.90014760574411 28.692610147165396 H 0.0 **** 0.06
5779 H 120.57768856039925 21.314839347903558 30.396750285435303 H 0.0 **** 0.06
5780 H 120.56215375299142 19.611950929163072 29.87754404146321 H 0.0 **** 0.06
5781 C 120.53403654177379 52.94454856874555 33.48697666500481 C 0.0 **** -0.24
5782 H 120.16041546440577 53.96201416908546 33.373688769184184 H 0.0 **** 0.06
5783 H 121.53162992484138 52.97124524612723 33.92567345430451 H 0.0 **** 0.06
5784 H 120.57972555349745 52.46461737758473 32.5095828478565 H 0.0 **** 0.06
5785 H 119.86506135892299 52.382377502396146 34.13782762657107 H 0.0 **** 0.06
5786 C 81.1341099018369 40.02160294917343 31.92397401099342 C 0.0 **** -0.24
5787 H 81.2099974680014 40.50466865268845 32.89766579054252 H 0.0 **** 0.06
5788 H 80.0939275925038 40.02187199532749 31.597940531409762 H 0.0 **** 0.06
5789 H 81.49109848562239 38.9944589843938 31.99961500846723 H 0.0 **** 0.06
5790 H 81.74219948607424 40.56501538520472 31.200196312548115 H 0.0 **** 0.06
5791 C 97.94389259092324 35.090942596156594 28.767701197595635 C 0.0 **** -0.24
5792 H 97.94379584441381 34.060225326940866 29.12186078628921 H 0.0 **** 0.06
5793 H 98.66096899542663 35.67308663153298 29.345591172036848 H 0.0 **** 0.06
5794 H 96.94702917366732 35.51660082919952 28.889789776508778 H 0.0 **** 0.06
5795 H 98.22125151596569 35.11228163060244 27.713939941722643 H 0.0 **** 0.06
5796 C 79.12063835854082 108.83570055593927 30.173125133668236 C 0.0 **** -0.24
5797 H 78.47312195130468 109.2238547783264 30.959589978069943 H 0.0 **** 0.06
5798 H 80.0925693365005 109.32700248290504 30.22641455408379 H 0.0 **** 0.06
5799 H 78.66656266924394 109.03012013581588 29.20173880726648 H 0.0 **** 0.06
5800 H 79.24856732595771 107.76114019757861 30.306348191575324 H 0.0 **** 0.06
5801 C 53.31642651429382 86.46078203039065 107.11040120598818 C 0.0 **** -0.24
5802 H 53.84280243699095 85.50709746328144 107.1395769930563 H 0.0 **** 0.06
5803 H 53.764065653296285 87.1444305192613 107.83269695565122 H 0.0 **** 0.06
5804 H 52.26701078336532 86.30484632865486 107.35864254062798 H 0.0 **** 0.06
5805 H 53.394618718274785 86.8872186239191 106.10969245156613 H 0.0 **** 0.06
5806 C 37.620240143751346 64.50962000280833 41.62422041514195 C 0.0 **** -0.24
5807 H 37.55288155936577 64.32438977645705 40.551439541551076 H 0.0 **** 0.06
5808 H 38.14546526174985 63.68265612863206 42.10226796939733 H 0.0 **** 0.06
5809 H 36.615987979393964 64.59257093627463 42.04081243311407 H 0.0 **** 0.06
5810 H 38.16413124489901 65.43737510504565 41.798817121453084 H 0.0 **** 0.06
5811 C 33.68573744470066 28.080645463268056 18.336442592160658 C 0.0 **** -0.24
5812 H 34.2236367365781 27.159653869873225 18.562422668883745 H 0.0 **** 0.06
5813 H 33.42711908935334 28.58815991047849 19.265777172432347 H 0.0 **** 0.06
5814 H 32.775231252179964 27.84256489341916 17.78623239298128 H 0.0 **** 0.06
5815 H 34.31784371391609 28.729681484573597 17.73040791034118 H 0.0 **** 0.06
5816 C 89.2368920547768 12.957016403858091 85.22663195828233 C 0.0 **** -0.24
5817 H 88.78010735186359 12.835345878094586 84.24401239951754 H 0.0 **** 0.06
5818 H 90.27028038452522 13.284857672026874 85.10755268810993 H 0.0 **** 0.06
5819 H 89.21643283156752 12.00493060552563 85.75673871225177 H 0.0 **** 0.06
5820 H 88.68171056866748 13.702627185105086 85.79599232073457 H 0.0 **** 0.06
5821 C 73.98785664116 106.87338222300721 66.79495996977766 C 0.0 **** -0.24
5822 H 74.74692513743932 107.65505283942483 66.82418652421089 H 0.0 **** 0.06
5823 H 74.02852601134884 106.36316938585065 65.83235931616329 H 0.0 **** 0.06
5824 H 73.0027129988697 107.31997285728113 66.92835756616486 H 0.0 **** 0.06
5825 H 74.1739134872835 106.15714244145042 67.5954889039983 H 0.0 **** 0.06
5826 C 6.80406767676763 1.1979746584375448 55.57199220104832 C 0.0 **** -0.24
5827 H 7.137848940039845 2.0642842833647137 55.00152415767238 H 0.0 **** 0.06
5828 H 6.961715043365615 1.3811056228895495 56.636212876271486 H 0.0 **** 0.06
5829 H 7.373584164302713 0.3202374432002557 55.265932567066045 H 0.0 **** 0.06
5830 H 5.744224126466122 1.0264994374707612 55.385616269253234 H 0.0 **** 0.06
5831 C 109.26713080701393 28.908972940943812 49.003266070293876 C 0.0 **** -0.24
5832 H 108.42713590784004 29.122602718664524 49.66453382159631 H 0.0 **** 0.06
5833 H 110.17616226203842 28.797460736849672 49.59615315304737 H 0.0 **** 0.06
5834 H 109.39237993497605 29.730230372669695 48.29777049748853 H 0.0 **** 0.06
5835 H 109.07409432266985 27.986846509122728 48.45703189992571 H 0.0 **** 0.06
5836 C 56.11539111358098 105.18327135156937 96.08611878354662 C 0.0 **** -0.24
5837 H 55.559974043412296 104.27559760095392 95.85024516523958 H 0.0 **** 0.06
5838 H 56.849783917127866 104.9683009695035 96.86404694192339 H 0.0 **** 0.06
5839 H 55.425830245288125 105.95002984092412 96.43973351278015 H 0.0 **** 0.06
5840 H 56.6269410142541 105.53881191212946 95.19184604992267 H 0.0 **** 0.06
5841 C 72.4232711206298 64.2252254322774 55.50135558810968 C 0.0 **** -0.24
5842 H 72.34711927766452 63.87483015860386 56.53030220181352 H 0.0 **** 0.06
5843 H 72.41827392311546 65.31559790634446 55.48703487560146 H 0.0 **** 0.06
5844 H 71.57567929205436 63.851402281723665 54.92646124620834 H 0.0 **** 0.06
5845 H 73.35048676240845 63.860030767995795 55.05922532873651 H 0.0 **** 0.06
5846 C 36.10215445377304 103.43281209881002 41.74337281259804 C 0.0 **** -0.24
5847 H 35.448237860428776 104.27539980780625 41.9729251825336 H 0.0 **** 0.06
5848 H 36.58203976633024 103.0864092040328 42.65846582803195 H 0.0 **** 0.06
5849 H 36.863358986011235 103.74853117449499 41.03005083383974 H 0.0 **** 0.06
5850 H 35.51312549755261 102.62394588855477 41.31147531037064 H 0.0 **** 0.06
5851 C 98.00492827418395 94.6264853895891 26.054262130921103 C 0.0 **** -0.24
5852 H 98.91338841214605 95.0832720848897 25.66178765327902 H 0.0 **** 0.06
5853 H 98.11017185201865 93.54070828788508 26.043864302534217 H 0.0 **** 0.06
5854 H 97.1563471139433 94.9148790477418 25.434237761521842 H 0.0 **** 0.06
5855 H 97.8406610011532 94.96596835813915 27.076991182050705 H 0.0 **** 0.06
5856 C 10.631495528899677 4.517700952959586 112.94854624278392 C 0.0 **** -0.24
5857 H 11.634961703345425 4.7278072964263345 113.32050882831751 H 0.0 **** 0.06
5858 H 9.923478229568389 5.210110746669756 113.40352128536745 H 0.0 **** 0.06
5859 H 10.35617949470327 3.49473974482963 113.20351786896208 H 0.0 **** 0.06
5860 H 10.614019914679886 4.639712599158713 111.86476998235989 H 0.0 **** 0.06
5861 C 27.40105370257527 118.72546465128576 108.75043199829344 C 0.0 **** -0.24
5862 H 27.278954313576605 119.80373259740591 108.85107534008895 H 0.0 **** 0.06
5863 H 27.909755287038024 118.5035800346857 107.81235895326617 H 0.0 **** 0.06
5864 H 26.42124639909821 118.24683161706393 108.75446347671863 H 0.0 **** 0.06
5865 H 27.99338417040707 118.34779137291552 109.58430889690209 H 0.0 **** 0.06
5866 C 48.64970243980899 92.36539371438485 43.34341160356706 C 0.0 **** -0.24
5867 H 48.62879912997126 93.28193771600783 42.754033745026135 H 0.0 **** 0.06
5868 H 49.44162516334525 91.71350109915761 42.97418326527307 H 0.0 **** 0.06
5869 H 47.68936363244551 91.85659735030069 43.25843056066557 H 0.0 **** 0.06
5870 H 48.83954563568776 92.61095618970035 44.388926708882764 H 0.0 **** 0.06
5871 C 12.600159305392477 34.85130932351811 40.67201008606446 C 0.0 **** -0.24
5872 H 11.772166046785841 34.5504539139167 40.03035106506289 H 0.0 **** 0.06
5873 H 12.828455825753423 35.90326920432554 40.50088372144211 H 0.0 **** 0.06
5874 H 13.477298166572453 34.24623969208659 40.44076490024037 H 0.0 **** 0.06
5875 H 12.32182173126791 34.703486565082045 41.71599898406288 H 0.0 **** 0.06
5876 C 22.956197880100866 49.45298548559009 20.03175368455132 C 0.0 **** -0.24
5877 H 22.007812448440433 48.92330352861802 19.939855667389935 H 0.0 **** 0.06
5878 H 22.971130711742454 50.29395055003948 19.338049185725225 H 0.0 **** 0.06
5879 H 23.776392170587478 48.77387598590286 19.79860190644851 H 0.0 **** 0.06
5880 H 23.06863307123281 49.82144719927567 21.051466599550395 H 0.0 **** 0.06
5881 C 101.13370422671159 87.5657904254254 116.09114718446929 C 0.0 **** -0.24
5882 H 100.3508055943899 87.4611975007104 115.33986748207292 H 0.0 **** 0.06
5883 H 101.89144064382003 88.26341099262658 115.73143436280365 H 0.0 **** 0.06
5884 H 101.59233422652002 86.59421154555116 116.2752643709317 H 0.0 **** 0.06
5885 H 100.70091868744129 87.94439584463467 117.01729337098092 H 0.0 **** 0.06
5886 C 99.59212434269267 67.51795863906884 71.38832593149607 C 0.0 **** -0.24
5887 H 98.53045464326848 67.38545319766192 71.59791103495934 H 0.0 **** 0.06
5888 H 100.17929604825048 67.07406928875028 72.19274672091208 H 0.0 **** 0.06
5889 H 99.81829262542254 68.58179753108908 71.31726370078056 H 0.0 **** 0.06
5890 H 99.83952948936889 67.03031738359647 70.44570840742784 H 0.0 **** 0.06
5891 C 118.2559011090484 38.652979706218645 88.13607455873014 C 0.0 **** -0.24
5892 H 118.54232122740048 37.681411522686204 87.73331046511072 H 0.0 **** 0.06
5893 H 117.3295983825983 38.982755283365606 87.66485539777804 H 0.0 **** 0.06
5894 H 119.04480622216859 39.37673459567037 87.9339962278546 H 0.0 **** 0.06
5895 H 118.10609792561473 38.569313818748526 89.21283506899644 H 0.0 **** 0.06
5896 C 26.908713096896435 14.344110256174702 54.51702073469167 C 0.0 **** -0.24
5897 H 27.029219741230662 13.27957836668233 54.719648899878536 H 0.0 **** 0.06
5898 H 27.521330624553173 14.917801825172631 55.21286404062056 H 0.0 **** 0.06
5899 H 25.86128461921578 14.620109578551308 54.64166874793608 H 0.0 **** 0.06
5900 H 27.221441208647605 14.55777170712139 53.495358856284724 H 0.0 **** 0.06
5901 C 79.96228038315644 49.54379796854451 47.66033445440076 C 0.0 **** -0.24
5902 H 79.70735623983865 48.539965738017685 47.319877864514964 H 0.0 **** 0.06
5903 H 79.16382907215595 50.23421704147867 47.386595172695046 H 0.0 **** 0.06
5904 H 80.89398046835842 49.86026451543532 47.19134617245819 H 0.0 **** 0.06
5905 H 80.08471545900315 49.53955190617836 48.74354069779609 H 0.0 **** 0.06
5906 C 54.65110422513922 90.40795886391004 95.36823710782204 C 0.0 **** -0.24
5907 H 55.40916488759919 89.70413478370668 95.02413851234849 H 0.0 **** 0.06
5908 H 54.02227989712148 89.92715167590555 96.11760587163371 H 0.0 **** 0.06
5909 H 54.03669540021153 90.72232466337641 94.5244402833149 H 0.0 **** 0.06
5910 H 55.13824316906721 91.27947358395008 95.80752057706428 H 0.0 **** 0.06
5911 C 117.55461244924747 0.6536230779538101 74.63305411939805 C 0.0 **** -0.24
5912 H 117.66983925552061 1.3173117186897088 75.48926859685798 H 0.0 **** 0.06
5913 H 117.31661610939291 1.2422224329403662 73.74644894824237 H 0.0 **** 0.06
5914 H 116.74932722676913 -0.05352911772796176 74.82756765639729 H 0.0 **** 0.06
5915 H 118.4848490532538 0.1089385320094749 74.46874104573072 H 0.0 **** 0.06
5916 C 119.40590406318574 87.14706897934212 22.623367643189283 C 0.0 **** -0.24
5917 H 118.48156507345372 87.72547556200144 22.594951471516538 H 0.0 **** 0.06
5918 H 119.59021651763658 86.70867090444628 21.64320484634743 H 0.0 **** 0.06
5919 H 119.3142083581856 86.35400487665845 23.365494557081888 H 0.0 **** 0.06
5920 H 120.23539263379527 87.8021862934277 22.892001626581703 H 0.0 **** 0.06
5921 C 89.32315510036136 36.82894014852208 87.86543583239325 C 0.0 **** -0.24
5922 H 90.12399510507487 37.568171610979675 87.85793599111759 H 0.0 **** 0.06
5923 H 88.45419055851644 37.22888729064048 87.34129164301854 H 0.0 **** 0.06
5924 H 89.05072742385414 36.597377588878835 88.89542957306631 H 0.0 **** 0.06
5925 H 89.662125210641 35.92075566131975 87.36666900208246 H 0.0 **** 0.06
5926 C 91.9101693471751 53.89308266167876 20.673890970034165 C 0.0 **** -0.24
5927 H 92.11593841103729 54.93779533493682 20.90735544527982 H 0.0 **** 0.06
5928 H 92.80359703019585 53.29648700312089 20.860515654117904 H 0.0 **** 0.06
5929 H 91.62583028257151 53.80556121692956 19.625714281207806 H 0.0 **** 0.06
5930 H 91.0946726011779 53.53483258973978 21.302279449054367 H 0.0 **** 0.06
5931 C 65.95534191111724 40.28623972612043 10.506502813449632 C 0.0 **** -0.24
5932 H 66.07590424629515 39.904443723887795 11.519831788421072 H 0.0 **** 0.06
5933 H 65.84795379441763 41.371027182654075 10.536522083814958 H 0.0 **** 0.06
5934 H 65.06552613264083 39.845648449734085 10.056199173619508 H 0.0 **** 0.06
5935 H 66.83105752198998 40.02420995496145 9.913384230141379 H 0.0 **** 0.06
5936 C 66.20047016263041 56.331730830476914 91.26611473774256 C 0.0 **** -0.24
5937 H 66.18611052365037 55.333238152684146 91.70259759021656 H 0.0 **** 0.06
5938 H 65.264475740768 56.841981748538984 91.4966329674636 H 0.0 **** 0.06
5939 H 66.31436483522322 56.25305787993375 90.18477588282155 H 0.0 **** 0.06
5940 H 67.0348868786071 56.897929030324406 91.67989181348389 H 0.0 **** 0.06
5941 C 3.427058353763613 76.25343515096372 42.93735417780508 C 0.0 **** -0.24
5942 H 2.9524405257288606 77.07745960549275 43.46846400408131 H 0.0 **** 0.06
5943 H 4.000232245810167 76.64475024282083 42.0972046171039 H 0.0 **** 0.06
5944 H 2.66188067521756 75.57019554516174 42.569547350513915 H 0.0 **** 0.06
5945 H 4.094640399332235 75.72028896731038 43.61560899032193 H 0.0 **** 0.06
5946 C 48.77796419309553 113.40188636038278 36.402926317282635 C 0.0 **** -0.24
5947 H 48.22273633827676 112.47031033539889 36.29790148890006 H 0.0 **** 0.06
5948 H 48.66399297834528 113.99681558269293 35.496552260510015 H 0.0 **** 0.06
5949 H 49.83424881115526 113.17892746668232 36.56180806760364 H 0.0 **** 0.06
5950 H 48.39240353529577 113.96085721457771 37.25596484522903 H 0.0 **** 0.06
5951 C 55.05564747583679 32.68140457911609 41.36934403542818 C 0.0 **** -0.24
5952 H 54.31488643356241 32.032625064954956 41.83757730302583 H 0.0 **** 0.06
5953 H 55.51773216155024 33.312231958294035 42.12847028958555 H 0.0 **** 0.06
5954 H 54.569846654433064 33.30778979118074 40.62188219751707 H 0.0 **** 0.06
5955 H 55.82073558010069 32.07004977594002 40.88974765981093 H 0.0 **** 0.06
5956 C 14.717249655875378 101.78613545681824 80.6310923943127 C 0.0 **** -0.24
5957 H 14.044545371389233 101.25326200705959 81.3033386125002 H 0.0 **** 0.06
5958 H 14.276359146465808 101.82976117275871 79.63522067480301 H 0.0 **** 0.06
5959 H 15.672736675122081 101.2634433646794 80.58308528768373 H 0.0 **** 0.06
5960 H 14.875874548356876 102.79802921360817 81.00404051665154 H 0.0 **** 0.06
5961 C 47.520079718771676 98.29951122801327 108.53893234636871 C 0.0 **** -0.24
5962 H 48.37028163117076 98.70060597830405 107.98648154838821 H 0.0 **** 0.06
5963 H 46.621752610442535 98.37249994865525 107.92595830153215 H 0.0 **** 0.06
5964 H 47.380924826328304 98.8694211641039 109.45686787539495 H 0.0 **** 0.06
5965 H 47.70798796871918 97.2543976547143 108.7845911086406 H 0.0 **** 0.06
5966 C 26.841660255466707 110.66442432366972 113.20913557864691 C 0.0 **** -0.24
5967 H 27.113290454648023 111.59638152910674 113.7052726083214 H 0.0 **** 0.06
5968 H 25.76301974776976 110.63776815242551 113.05292015257251 H 0.0 **** 0.06
5969 H 27.141000783864726 109.82077114181703 113.83101955940336 H 0.0 **** 0.06
5970 H 27.34985985553648 110.60473795219377 112.24596170425829 H 0.0 **** 0.06
5971 C 97.02378750523584 0.4572891324079933 8.457913507151773 C 0.0 **** -0.24
5972 H 96.79102392000814 0.9027368966639813 7.491643653333142 H 0.0 **** 0.06
5973 H 96.17275609218811 -0.13255996268483727 8.800706150204746 H 0.0 **** 0.06
5974 H 97.23457491919405 1.245611071503916 9.179899838326918 H 0.0 **** 0.06
5975 H 97.89692406606991 -0.1878467771362864 8.360116088343517 H 0.0 **** 0.06
5976 C 98.43665231202058 115.93927088250737 83.01050352167925 C 0.0 **** -0.24
5977 H 98.23803037414837 116.85413606950416 82.45260826196673 H 0.0 **** 0.06
5978 H 99.50319105753326 115.71503590840207 82.97185154393313 H 0.0 **** 0.06
5979 H 97.87529701302427 115.11571836037817 82.5707382143346 H 0.0 **** 0.06
5980 H 98.13114386638858 116.0737974075359 84.04796403351196 H 0.0 **** 0.06
5981 C 120.01121503183765 122.50793854480926 85.93131812048205 C 0.0 **** -0.24
5982 H 120.14950995187408 123.23168139293423 86.73411877812461 H 0.0 **** 0.06
5983 H 118.95422868889503 122.25073900617993 85.8523024164515 H 0.0 **** 0.06
5984 H 120.5890005853231 121.61014536537185 86.14756175231591 H 0.0 **** 0.06
5985 H 120.35125897395815 122.9401296474904 84.9894533867386 H 0.0 **** 0.06
5986 C 81.90698954668923 36.96509250750111 117.84875124866605 C 0.0 **** -0.24
5987 H 81.64942302724373 35.98062605285057 117.45966854547032 H 0.0 **** 0.06
5988 H 82.58528520710672 37.462890023548994 117.15413992890967 H 0.0 **** 0.06
5989 H 82.39369046614374 36.85779609715334 118.8185372392124 H 0.0 **** 0.06
5990 H 81.0009578305336 37.56048066039165 117.96041857510889 H 0.0 **** 0.06
5991 C 95.48387174772236 93.08207334574976 122.57141947376499 C 0.0 **** -0.24
5992 H 96.30889253353854 93.45216141199273 123.18111097334062 H 0.0 **** 0.06
5993 H 95.11413991583242 93.8862640119687 121.93550292426639 H 0.0 **** 0.06
5994 H 94.68088638676323 92.73359961284424 123.2206618601165 H 0.0 **** 0.06
5995 H 95.83335587569559 92.25786224155613 121.94990679567388 H 0.0 **** 0.06
5996 C 72.23252529325208 27.167251293977642 18.183136086477347 C 0.0 **** -0.24
5997 H 73.30742016213497 27.31964197720825 18.07811077574479 H 0.0 **** 0.06
5998 H 71.99529983111603 26.968703795626993 19.22825334908582 H 0.0 **** 0.06
5999 H 71.92450216485082 26.318470389688684 17.57254304720948 H 0.0 **** 0.06
6000 H 71.705843094156 28.062639268215975 17.853746744636595 H 0.0 **** 0.06
6001 C 24.202279379588333 82.22375437760394 11.547381211856163 C 0.0 **** -0.24
6002 H 23.441242017957222 82.43346007206293 10.795189193783429 H 0.0 **** 0.06
6003 H 23.730931432261343 81.78981592624592 12.43001632377667 H 0.0 **** 0.06
6004 H 24.706093326921007 83.15053004713656 11.822092878590652 H 0.0 **** 0.06
6005 H 24.929968461300916 81.52090288348569 11.141165097917124 H 0.0 **** 0.06
6006 C 20.552959085851285 73.98264340512159 86.70181251266251 C 0.0 **** -0.24
6007 H 19.53104324886783 73.93475903078127 86.32546527179016 H 0.0 **** 0.06
6008 H 20.602195138041225 73.50170394866069 87.67902805259888 H 0.0 **** 0.06
6009 H 20.85770332272847 75.0251232692861 86.79369728048454 H 0.0 **** 0.06
6010 H 21.219975197938368 73.46803706713723 86.01017825133175 H 0.0 **** 0.06
6011 C 52.712756648665305 30.401332504045826 96.86962550735839 C 0.0 **** -0.24
6012 H 52.81707457130187 29.56182899043145 96.18205895267891 H 0.0 **** 0.06
6013 H 51.68413505175303 30.762513783173574 96.84870015456411 H 0.0 **** 0.06
6014 H 53.38515909322902 31.203793608830523 96.56727765719154 H 0.0 **** 0.06
6015 H 52.963931508132305 30.077827054889212 97.87902605309247 H 0.0 **** 0.06
6016 C 10.75246563910737 107.23017945978637 54.47738975839758 C 0.0 **** -0.24
6017 H 11.717024758149051 107.61369622638321 54.144179995330944 H 0.0 **** 0.06
6018 H 9.957657091995813 107.67852188111402 53.882116275866 H 0.0 **** 0.06
6019 H 10.605955368088274 107.48166936290949 55.52788045615057 H 0.0 **** 0.06
6020 H 10.731551417695954 106.14676354802052 54.356147305019704 H 0.0 **** 0.06
6021 C 38.111509121533885 75.16059072607004 5.829112415326634 C 0.0 **** -0.24
6022 H 39.060029310446225 75.52694681857264 5.434942579824522 H 0.0 **** 0.06
6023 H 38.26201490525726 74.7775639192842 6.839120177667951 H 0.0 **** 0.06
6024 H 37.737131456823846 74.3620050149311 5.189567038344094 H 0.0 **** 0.06
6025 H 37.389124529026205 75.97613195093177 5.853711389872274 H 0.0 **** 0.06
6026 C 99.83093563056602 98.02282615965959 48.866628977057985 C 0.0 **** -0.24
6027 H 99.1838530506783 98.00088971801893 49.743426587197405 H 0.0 **** 0.06
6028 H 99.79231787985 99.01199736416442 48.410606920839086 H 0.0 **** 0.06
6029 H 99.49334549074871 97.27646795021877 48.14775594739979 H 0.0 **** 0.06
6030 H 100.85506729303958 97.8004916388436 49.16720984321512 H 0.0 **** 0.06
6031 C 98.58677781843679 79.29466308869067 87.76907816600465 C 0.0 **** -0.24
6032 H 97.78900913144284 78.95687939019479 87.1072145458511 H 0.0 **** 0.06
6033 H 98.55908086974068 80.38168393227639 87.84575086349838 H 0.0 **** 0.06
6034 H 99.54986269855632 78.98214775533745 87.363484898828 H 0.0 **** 0.06
6035 H 98.4495371565126 78.85675707275726 88.75713200116274 H 0.0 **** 0.06
6036 C 90.01442689613279 80.0315686089362 58.00510542939455 C 0.0 **** -0.24
6037 H 89.1610633299608 79.54722158589192 58.480130412723156 H 0.0 **** 0.06
6038 H 90.85559545801434 79.340021700742 57.97630661876423 H 0.0 **** 0.06
6039 H 90.29217524466554 80.91894024736484 58.57516826765817 H 0.0 **** 0.06
6040 H 89.74782074946845 80.32230202432203 56.98876277154278 H 0.0 **** 0.06
6041 C 90.76428909462311 32.45064600767597 27.648810385249305 C 0.0 **** -0.24
6042 H 90.77549984564988 33.4350987004284 28.117222998485147 H 0.0 **** 0.06
6043 H 91.58649991344697 31.85170879535832 28.042511802996614 H 0.0 **** 0.06
6044 H 90.87693797109839 32.55985947795074 26.570441828626656 H 0.0 **** 0.06
6045 H 89.81727889266509 31.95662253903572 27.866683359853596 H 0.0 **** 0.06
6046 C 114.3181505614051 118.12823914060851 74.26559984613874 C 0.0 **** -0.24
6047 H 114.52590439658474 119.01251598743761 73.66268363322979 H 0.0 **** 0.06
6048 H 114.5307298829002 117.23313816025643 73.68102786840564 H 0.0 **** 0.06
6049 H 113.26930944594329 118.12901051533672 74.56191527898523 H 0.0 **** 0.06
6050 H 114.94760391003064 118.13873151011055 75.15538943819305 H 0.0 **** 0.06
6051 C 81.16692555690457 89.71363653067706 29.820768068507846 C 0.0 **** -0.24
6052 H 80.41349236576559 90.30919554100163 29.304092069613375 H 0.0 **** 0.06
6053 H 82.11659993611977 90.24908213578414 29.818173130832292 H 0.0 **** 0.06
6054 H 81.2866325540966 88.75832915998257 29.31116223058416 H 0.0 **** 0.06
6055 H 80.84941605355101 89.5400006509613 30.848498760375662 H 0.0 **** 0.06
6056 C 50.74942433089882 76.7685805651752 101.01048142608536 C 0.0 **** -0.24
6057 H 49.85194796384695 76.17603749704605 100.83733719224878 H 0.0 **** 0.06
6058 H 51.61069818938711 76.1066796804908 101.10210401971537 H 0.0 **** 0.06
6059 H 50.633002600237944 77.34408122284475 101.92878426231434 H 0.0 **** 0.06
6060 H 50.901618556699134 77.44983477667077 100.17301096375314 H 0.0 **** 0.06
6061 C 118.57145799357065 97.59217550670559 103.54912682141872 C 0.0 **** -0.24
6062 H 119.19951166978518 96.77323832994125 103.9008691277217 H 0.0 **** 0.06
6063 H 119.11058572897787 98.16466262082804 102.7947529860034 H 0.0 **** 0.06
6064 H 118.31925651772083 98.24109177992182 104.38804710151464 H 0.0 **** 0.06
6065 H 117.65657742738892 97.1880663701196 103.11534634090873 H 0.0 **** 0.06
6066 C 81.94980293608307 72.80738014836948 7.145984753564221 C 0.0 **** -0.24
6067 H 81.88804645538121 72.72358642810542 8.231643980004037 H 0.0 **** 0.06
6068 H 82.69675822991346 73.55675944521414 6.882440382099389 H 0.0 **** 0.06
6069 H 80.97976159955618 73.10515276036432 6.748397800762973 H 0.0 **** 0.06
6070 H 82.23598863080497 71.84445508075152 6.724286843202549 H 0.0 **** 0.06
6071 C 82.20807568077501 48.09828397189838 78.36361952027218 C 0.0 **** -0.24
6072 H 82.28996885551939 48.15813636234833 79.4491601049368 H 0.0 **** 0.06
6073 H 82.97170747298776 48.72727775393258 77.90699999510343 H 0.0 **** 0.06
6074 H 81.22058648403726 48.441834696631986 78.05568753363136 H 0.0 **** 0.06
6075 H 82.34879555072635 47.064893133414245 78.04570686047859 H 0.0 **** 0.06
6076 C 111.6960827989199 119.16228032454868 101.47963928802889 C 0.0 **** -0.24
6077 H 110.66568850775042 119.45666877260558 101.67776588710859 H 0.0 **** 0.06
6078 H 111.84821818240657 119.07640939603479 100.40341246447471 H 0.0 **** 0.06
6079 H 111.89663639609782 118.20159094211809 101.95341272195611 H 0.0 **** 0.06
6080 H 112.37325568688077 119.91528064678525 101.88379219066937 H 0.0 **** 0.06
6081 C 43.52716694103268 9.083969248529474 78.83347289098873 C 0.0 **** -0.24
6082 H 43.96243652513614 9.23071484781823 77.84470230158817 H 0.0 **** 0.06
6083 H 44.01307474228569 8.239340563620555 79.32223780249961 H 0.0 **** 0.06
6084 H 42.4603537482592 8.88299411521685 78.73336415540894 H 0.0 **** 0.06
6085 H 43.67349773464626 9.983228336788702 79.43150006314909 H 0.0 **** 0.06
6086 C 66.69374783762947 85.15698453619376 15.56854034469228 C 0.0 **** -0.24
6087 H 66.86764950836161 84.26979553031919 14.959539513092523 H 0.0 **** 0.06
6088 H 67.41775869010479 85.92697032246076 15.304790042634352 H 0.0 **** 0.06
6089 H 66.80144128139963 84.90074951671863 16.62202162550028 H 0.0 **** 0.06
6090 H 65.68485085565311 85.52937466434673 15.38637093973557 H 0.0 **** 0.06
6091 C 22.968851327699326 3.4564359476029978 6.161949437047262 C 0.0 **** -0.24
6092 H 22.02804524523492 2.9133062962426948 6.262633821576117 H 0.0 **** 0.06
6093 H 22.912234187809986 4.3876747342812195 6.727107862721358 H 0.0 **** 0.06
6094 H 23.147305978191696 3.679497877464243 5.110701908838639 H 0.0 **** 0.06
6095 H 23.783827045678777 2.8446269321833455 6.548161052586455 H 0.0 **** 0.06
6096 C 44.61071516270695 13.346806558571139 54.56599342177148 C 0.0 **** -0.24
6097 H 44.889248162437326 13.37673483585727 55.61956203206262 H 0.0 **** 0.06
6098 H 43.53213486899676 13.214929646844475 54.480552476655305 H 0.0 **** 0.06
6099 H 45.118978139483346 12.513588680771264 54.08067409952341 H 0.0 **** 0.06
6100 H 44.90335280069695 14.280448660898681 54.08649397553799 H 0.0 **** 0.06
6101 C 39.28917229906233 11.607296262368095 110.96249528173254 C 0.0 **** -0.24
6102 H 39.84163335111435 11.144423195336685 110.1451585056113 H 0.0 **** 0.06
6103 H 38.295883693443216 11.891610413121782 110.61416443744255 H 0.0 **** 0.06
6104 H 39.82198095536165 12.494777301227145 111.30454278270079 H 0.0 **** 0.06
6105 H 39.19683096331812 10.899374601285501 111.78518297407847 H 0.0 **** 0.06
6106 C 111.35296817452226 17.26701282712733 77.74263718229773 C 0.0 **** -0.24
6107 H 111.56860085519406 18.292948378902565 77.44544552922642 H 0.0 **** 0.06
6108 H 110.47435646774088 16.910016415654926 77.20518377142653 H 0.0 **** 0.06
6109 H 111.16255834085968 17.232395590649382 78.8158011626785 H 0.0 **** 0.06
6110 H 112.20712596524528 16.63267939968424 77.50475753736774 H 0.0 **** 0.06
6111 C 91.65594899623468 17.16276206193434 37.402614649681226 C 0.0 **** -0.24
6112 H 92.11778225255847 16.252338704380577 37.78508491194236 H 0.0 **** 0.06
6113 H 90.61289465178089 16.964216167898048 37.15569704107253 H 0.0 **** 0.06
6114 H 92.18591582814463 17.490047509414612 36.5070312473801 H 0.0 **** 0.06
6115 H 91.70800771520504 17.94344123083107 38.16056120022321 H 0.0 **** 0.06
6116 C 39.85699520587002 119.48672416505761 91.77505562674094 C 0.0 **** -0.24
6117 H 39.29637431708224 118.56092290594009 91.91078872068834 H 0.0 **** 0.06
6118 H 39.61537021765167 120.17890462491867 92.58103803945679 H 0.0 **** 0.06
6119 H 39.590001623983596 119.93480481902036 90.81807063645456 H 0.0 **** 0.06
6120 H 40.924316494897965 119.26931961937983 91.78904050975353 H 0.0 **** 0.06
6121 C 3.4896321750528045 97.87556432959627 109.51785459818026 C 0.0 **** -0.24
6122 H 2.5738848961487264 97.38551292853938 109.84709557562044 H 0.0 **** 0.06
6123 H 4.258364331328153 97.75846713692886 110.28264628879117 H 0.0 **** 0.06
6124 H 3.2961763640725934 98.93641173806404 109.35745266788703 H 0.0 **** 0.06
6125 H 3.830563946903382 97.42340841307345 108.5869455602261 H 0.0 **** 0.06
6126 C 56.36659707447354 44.539682746851724 101.12734325226208 C 0.0 **** -0.24
6127 H 55.941964403978425 45.44445056963946 100.69324491116541 H 0.0 **** 0.06
6128 H 55.662494806196015 43.71528080622559 101.01027651522375 H 0.0 **** 0.06
6129 H 56.5614913183257 44.70222624343532 102.18786955141744 H 0.0 **** 0.06
6130 H 57.299826691512 44.29595063781392 100.6193784071495 H 0.0 **** 0.06
6131 C 93.52354006175912 21.239856099812584 34.0721561971164 C 0.0 **** -0.24
6132 H 92.67671698143155 21.315721574096443 33.390410493839845 H 0.0 **** 0.06
6133 H 94.3262463789008 20.678626558570073 33.59275432243162 H 0.0 **** 0.06
6134 H 93.21275287791141 20.724754770827673 34.98107482576253 H 0.0 **** 0.06
6135 H 93.87857669076487 22.239334933297783 34.32428951342073 H 0.0 **** 0.06
6136 C 111.30746959604545 99.54965058159539 8.862561055786784 C 0.0 **** -0.24
6137 H 110.8768030513562 98.82932801967536 8.166885934548304 H 0.0 **** 0.06
6138 H 110.56520674328291 100.31138715282341 9.102799328334243 H 0.0 **** 0.06
6139 H 112.17736484633159 100.02121331658137 8.405362006567117 H 0.0 **** 0.06
6140 H 111.61001795813019 99.03588565783721 9.775574897675114 H 0.0 **** 0.06
6141 C 86.94606302312934 97.42689773045225 96.61788927661092 C 0.0 **** -0.24
6142 H 86.97875258902806 98.30385515330178 95.97080563366106 H 0.0 **** 0.06
6143 H 85.91266364315297 97.21630765287702 96.89210749983587 H 0.0 **** 0.06
6144 H 87.52997158070792 97.61834993772743 97.5183202807631 H 0.0 **** 0.06
6145 H 87.36415626640817 96.5705303874334 96.0892181896046 H 0.0 **** 0.06
6146 C 39.26123980920342 18.221307775562764 1.9060834978885737 C 0.0 **** -0.24
6147 H 38.773065436101405 18.845589616575126 1.1579090014565168 H 0.0 **** 0.06
6148 H 40.208525392630904 17.853500813136606 1.5108111439545553 H 0.0 **** 0.06
6149 H 38.61705759932464 17.37634212575344 2.1501930713949378 H 0.0 **** 0.06
6150 H 39.445929121635345 18.808443429952092 2.805286295631589 H 0.0 **** 0.06
6151 C 82.39593397894413 66.23856607832394 30.956947693060016 C 0.0 **** -0.24
6152 H 82.08404368087187 65.19937007404499 31.056557840317623 H 0.0 **** 0.06
6153 H 82.71022719668665 66.42524215600196 29.930025130374844 H 0.0 **** 0.06
6154 H 83.22698339409197 66.4351880737006 31.63375619555012 H 0.0 **** 0.06
6155 H 81.56115274847568 66.89344295743095 31.205971144165204 H 0.0 **** 0.06
6156 C 52.30352350639949 43.54419673901157 43.45105145050951 C 0.0 **** -0.24
6157 H 52.157837291879915 43.29320619188326 44.50151295781086 H 0.0 **** 0.06
6158 H 51.77496877285048 44.47018077172743 43.221910311012095 H 0.0 **** 0.06
6159 H 51.91472154080369 42.73875134348006 42.82792314846159 H 0.0 **** 0.06
6160 H 53.36761185978539 43.674808156619264 43.25379838657378 H 0.0 **** 0.06
6161 C 116.78166664859832 66.57741880485116 105.65123485496173 C 0.0 **** -0.24
6162 H 116.99845703564104 65.51924578304798 105.79919411269952 H 0.0 **** 0.06
6163 H 115.9858039314327 66.88290899228403 106.3297990435907 H 0.0 **** 0.06
6164 H 116.46557466764494 66.74251391854025 104.62081521302787 H 0.0 **** 0.06
6165 H 117.67811357573906 67.16291412778111 105.85372491647371 H 0.0 **** 0.06
6166 C 91.23907833819922 37.205174324454084 33.23268626798962 C 0.0 **** -0.24
6167 H 91.45889013476457 38.266861476075654 33.12196916921131 H 0.0 **** 0.06
6168 H 91.83500018985518 36.63451926874664 32.519061583343614 H 0.0 **** 0.06
6169 H 90.18042291256015 37.03166189751518 33.04370168803986 H 0.0 **** 0.06
6170 H 91.48418591357569 36.88718556731163 34.24596241295944 H 0.0 **** 0.06
6171 C 20.802029024256143 29.254895786526532 109.52440654909239 C 0.0 **** -0.24
6172 H 20.36561383247762 28.721139324594503 110.3682228256871 H 0.0 **** 0.06
6173 H 21.71004196192297 28.745851064884278 109.20275915191104 H 0.0 **** 0.06
6174 H 21.043026335308568 30.27500864667823 109.82638548521092 H 0.0 **** 0.06
6175 H 20.08719676346599 29.279885431131532 108.70156238524083 H 0.0 **** 0.06
6176 C 111.92697330963107 5.875978446644368 83.12554013095806 C 0.0 **** -0.24
6177 H 111.47349220406099 6.825264878950762 83.41210832609727 H 0.0 **** 0.06
6178 H 112.06222503301468 5.849055518166978 82.0442847226652 H 0.0 **** 0.06
6179 H 111.27654215060764 5.056927034108199 83.43163193425286 H 0.0 **** 0.06
6180 H 112.89530172413662 5.773927583798439 83.61683729869287 H 0.0 **** 0.06
6181 C 25.159958290742907 71.86482764590937 77.07497433641919 C 0.0 **** -0.24
6182 H 24.885492899296423 71.94221231554016 78.12705061477197 H 0.0 **** 0.06
6183 H 24.767010495802424 70.93324101952552 76.66517605231365 H 0.0 **** 0.06
6184 H 26.2451811763664 71.8738703600614 76.98132840157623 H 0.0 **** 0.06
6185 H 24.74067641663069 72.70848912747115 76.52711019062724 H 0.0 **** 0.06
6186 C 21.78174880659347 70.87791432610462 16.721592717015284 C 0.0 **** -0.24
6187 H 21.56861649336102 70.73294342542974 17.780948283417644 H 0.0 **** 0.06
6188 H 21.192870626077422 70.17401027278126 16.13277377249736 H 0.0 **** 0.06
6189 H 22.842770261987965 70.70786143899682 16.53826070501087 H 0.0 **** 0.06
6190 H 21.52205408849656 71.89745614658852 16.435856328312923 H 0.0 **** 0.06
6191 C 27.844743378396316 82.18307544788644 84.42995620408064 C 0.0 **** -0.24
6192 H 28.51984875313417 81.7733147565163 83.67822215844168 H 0.0 **** 0.06
6193 H 27.271686833243677 81.37316833850744 84.88152215480707 H 0.0 **** 0.06
6194 H 27.16390256723554 82.89175636594868 83.95854632970483 H 0.0 **** 0.06
6195 H 28.424809483497256 82.69235736206562 85.1994198903719 H 0.0 **** 0.06
6196 C 20.849577886152417 58.17604357290912 80.21010611542252 C 0.0 **** -0.24
6197 H 19.851885875049504 58.01152939662708 80.61515028283114 H 0.0 **** 0.06
6198 H 21.57273137131216 58.203477050856236 81.02595698284125 H 0.0 **** 0.06
6199 H 20.872343203790848 59.124566733495584 79.67308869384323 H 0.0 **** 0.06
6200 H 21.102114425714376 57.36615034273345 79.52636030640036 H 0.0 **** 0.06
6201 C 107.0726052483594 46.653172341537186 103.43845798530975 C 0.0 **** -0.24
6202 H 108.00943867489491 47.124010265035615 103.1431584369331 H 0.0 **** 0.06
6203 H 106.91262971080957 46.80092557688365 104.50655112073889 H 0.0 **** 0.06
6204 H 107.11984569543023 45.585737557798105 103.22221860692966 H 0.0 **** 0.06
6205 H 106.24948848458652 47.10099943163977 102.88196108452834 H 0.0 **** 0.06
6206 C 75.2485178291092 97.77414940948387 21.819748497160447 C 0.0 **** -0.24
6207 H 75.09755452055393 98.76567851593796 21.393030517230017 H 0.0 **** 0.06
6208 H 76.29253418350447 97.48270025520168 21.70049067214876 H 0.0 **** 0.06
6209 H 74.60873527367099 97.0565568918492 21.30538731092389 H 0.0 **** 0.06
6210 H 74.99438020298703 97.79277909373053 22.880070237440293 H 0.0 **** 0.06
6211 C 23.17079674038179 26.248250396188098 26.85193169946865 C 0.0 **** -0.24
6212 H 22.235536200391763 26.804825362923623 26.919984726244195 H 0.0 **** 0.06
6213 H 23.63810691283905 26.202187383582555 27.835712438812436 H 0.0 **** 0.06
6214 H 23.841445392572524 26.750878242042234 26.154095877751786 H 0.0 **** 0.06
6215 H 22.96770570533498 25.23839521431131 26.497693664854125 H 0.0 **** 0.06
6216 C 100.13753089997377 94.75408148285442 109.54898994414137 C 0.0 **** -0.24
6217 H 100.36919857738152 95.25472555644623 110.48856094869413 H 0.0 **** 0.06
6218 H 99.95874178039355 95.5005111111702 108.77456213469549 H 0.0 **** 0.06
6219 H 99.24672287252136 94.1393560880841 109.67422900032022 H 0.0 **** 0.06
6220 H 100.97712768288284 94.12269899467333 109.25807151862497 H 0.0 **** 0.06
6221 C 105.98614046000736 122.23091334482234 81.9656431482673 C 0.0 **** -0.24
6222 H 106.90710046302601 122.74666360173896 81.69570720249573 H 0.0 **** 0.06
6223 H 105.75077615923104 121.48626825778538 81.20574813803816 H 0.0 **** 0.06
6224 H 105.17204972568561 122.95316853589063 82.03117083020308 H 0.0 **** 0.06
6225 H 106.11358325894145 121.73948969747822 82.93032354848904 H 0.0 **** 0.06
6226 C 13.589790586795402 97.66884935082311 103.22448133358836 C 0.0 **** -0.24
6227 H 14.302739544244702 97.95907780324956 102.45317703457633 H 0.0 **** 0.06
6228 H 13.427654502567677 96.59196073412508 103.18268533519378 H 0.0 **** 0.06
6229 H 12.644613874823563 98.18552601185178 103.05853457621288 H 0.0 **** 0.06
6230 H 13.985081189731773 97.93968030845446 104.20417880402778 H 0.0 **** 0.06
6231 C 40.5614684440274 2.5667268259051816 76.24274896825398 C 0.0 **** -0.24
6232 H 40.811306890537004 3.226635626202773 75.41212375777198 H 0.0 **** 0.06
6233 H 39.79585144632458 1.8589303119834444 75.9264598825834 H 0.0 **** 0.06
6234 H 40.18624615671264 3.159549300980384 77.0776716864635 H 0.0 **** 0.06
6235 H 41.453403303087555 2.0228234829929246 76.55499331630969 H 0.0 **** 0.06
6236 C 112.67806584551037 49.47356856473053 37.915204616935824 C 0.0 **** -0.24
6237 H 112.18083029259395 49.61126054967761 36.95534117872225 H 0.0 **** 0.06
6238 H 111.99294197068497 48.990083119274644 38.61259640606329 H 0.0 **** 0.06
6239 H 112.97691382492057 50.44418555377054 38.31208333950184 H 0.0 **** 0.06
6240 H 113.56157729384174 48.84874503619929 37.78079754345603 H 0.0 **** 0.06
6241 C 87.52792277303823 109.49790453567928 119.41560233138684 C 0.0 **** -0.24
6242 H 88.02220879403419 109.69867260787976 118.46568308382228 H 0.0 **** 0.06
6243 H 87.81488039200681 110.25796930048716 120.14197343667891 H 0.0 **** 0.06
6244 H 87.82724587244022 108.51433042187887 119.77964059002184 H 0.0 **** 0.06
6245 H 86.44695026037482 109.51888761205029 119.27379147370884 H 0.0 **** 0.06
6246 C 41.079188162908565 88.8626060789058 84.27311338331549 C 0.0 **** -0.24
6247 H 40.19023496941713 88.45813783059609 84.75770374233525 H 0.0 **** 0.06
6248 H 41.096378857728894 89.94601891544843 84.39064305208683 H 0.0 **** 0.06
6249 H 41.06120646424034 88.61166128148315 83.21238414583553 H 0.0 **** 0.06
6250 H 41.96951663667869 88.43264410810437 84.73262189776261 H 0.0 **** 0.06
6251 C 60.98270951111085 66.13694343870324 61.322615480592894 C 0.0 **** -0.24
6252 H 61.464579770600004 65.34490520911893 61.89661345516965 H 0.0 **** 0.06
6253 H 61.63629006951259 67.00820036462383 61.2871201400531 H 0.0 **** 0.06
6254 H 60.04031188433664 66.4073274331831 61.79910823689814 H 0.0 **** 0.06
6255 H 60.789323361696695 65.78485327889854 60.30954419872693 H 0.0 **** 0.06
6256 C 38.18447545141808 50.56992159008462 98.66833407435479 C 0.0 **** -0.24
6257 H 37.82474051977675 50.841323532008914 97.67648689705243 H 0.0 **** 0.06
6258 H 39.12374335117825 51.08528516948206 98.86871200613894 H 0.0 **** 0.06
6259 H 38.34304008745917 49.49317354505803 98.71589414016069 H 0.0 **** 0.06
6260 H 37.44445333912623 50.8616418596651 99.41474869441487 H 0.0 **** 0.06
6261 C 40.36025181893188 39.958686761648224 14.337674014733494 C 0.0 **** -0.24
6262 H 41.30406362667345 39.96906074508885 13.79285408144483 H 0.0 **** 0.06
6263 H 40.15780560648303 38.94893837077612 14.695085345525541 H 0.0 **** 0.06
6264 H 39.55533700048361 40.27814684637933 13.674282255828786 H 0.0 **** 0.06
6265 H 40.42344342657362 40.63963996010877 15.186285042383417 H 0.0 **** 0.06
6266 C 42.18894390725367 3.1488129219897907 91.74533022833694 C 0.0 **** -0.24
6267 H 43.14403180878376 3.2454579987057546 92.26223833756922 H 0.0 **** 0.06
6268 H 41.90450199792731 2.0969817316184987 91.70243347306285 H 0.0 **** 0.06
6269 H 42.28320881790852 3.5427586074461086 90.73331636433761 H 0.0 **** 0.06
6270 H 41.42581981966549 3.710384111689656 92.28463587548981 H 0.0 **** 0.06
6271 C 102.59542837437857 62.26767293461876 34.98762248128605 C 0.0 **** -0.24
6272 H 103.12907557319778 61.443703822282544 35.4608895042831 H 0.0 **** 0.06
6273 H 102.87158997699078 62.3224933460632 33.934182083726625 H 0.0 **** 0.06
6274 H 102.8577231027686 63.20240444733162 35.48182338049884 H 0.0 **** 0.06
6275 H 101.52156708857939 62.10088416202973 35.072919507999984 H 0.0 **** 0.06
6276 C 104.31985290646048 60.06436004975194 28.408527894938345 C 0.0 **** -0.24
6277 H 103.56935091218179 59.34221406107895 28.086914678107178 H 0.0 **** 0.06
6278 H 104.63847676446164 59.82839552629025 29.42357009947358 H 0.0 **** 0.06
6279 H 103.89145694372314 61.06686830151057 28.386385506638902 H 0.0 **** 0.06
6280 H 105.17721380403418 60.02048080899857 27.73835707907486 H 0.0 **** 0.06
6281 C 62.59225338851684 90.5885187065802 121.57347738634999 C 0.0 **** -0.24
6282 H 62.69931668533923 90.04073026883651 120.63722720243335 H 0.0 **** 0.06
6283 H 61.91062398958155 90.05022283341094 122.23332216939983 H 0.0 **** 0.06
6284 H 62.19235166880736 91.58162913148868 121.36964066883068 H 0.0 **** 0.06
6285 H 63.56662663994376 90.67930121534499 122.05415447662674 H 0.0 **** 0.06
6286 C 41.00052767064625 72.43003161665132 89.03130230435801 C 0.0 **** -0.24
6287 H 41.94650970673558 71.91355510509669 89.19642702603673 H 0.0 **** 0.06
6288 H 40.299907763414296 72.1680623172117 89.8244227145124 H 0.0 **** 0.06
6289 H 40.58827086711602 72.13193926182663 88.06741777126757 H 0.0 **** 0.06
6290 H 41.169798957476644 73.50715294445132 89.03705111645866 H 0.0 **** 0.06
6291 C 65.42438229417655 44.342355076165 51.569350919945435 C 0.0 **** -0.24
6292 H 64.39830601497985 44.47213454859306 51.91331586075859 H 0.0 **** 0.06
6293 H 65.60760263100522 45.00020725193028 50.71876521081319 H 0.0 **** 0.06
6294 H 65.57671822446147 43.306614475476216 51.26721311327498 H 0.0 **** 0.06
6295 H 66.11327008737786 44.59068060738693 52.37629585518252 H 0.0 **** 0.06
6296 C 96.01693471882743 15.389440790566653 33.30103627937724 C 0.0 **** -0.24
6297 H 96.06424294560236 14.889150539925652 32.333952152750385 H 0.0 **** 0.06
6298 H 96.78455507063131 14.981390317227408 33.95819981185764 H 0.0 **** 0.06
6299 H 95.03466379036456 15.228210468979285 33.74516771905806 H 0.0 **** 0.06
6300 H 96.18317917446927 16.45874045281903 33.16597626327428 H 0.0 **** 0.06
6301 C 40.41972924556654 114.61547111330754 105.76338630896839 C 0.0 **** -0.24
6302 H 39.64843652283142 113.88261449140123 105.99658952387938 H 0.0 **** 0.06
6303 H 40.411757663387505 114.82393565903976 104.69352177653084 H 0.0 **** 0.06
6304 H 41.395328213672514 114.22111321135691 106.05052864319109 H 0.0 **** 0.06
6305 H 40.224200254218886 115.53616911901133 106.31415285606096 H 0.0 **** 0.06
6306 C 120.03937088123189 7.902479667266817 78.45842402242576 C 0.0 **** -0.24
6307 H 120.62671067701899 7.097517087192699 78.01493171983904 H 0.0 **** 0.06
6308 H 120.24876393470689 7.95744887642519 79.52661550950171 H 0.0 **** 0.06
6309 H 118.97923011063065 7.705209537520602 78.30446921333515 H 0.0 **** 0.06
6310 H 120.30527172183943 8.848746667632412 77.98634067666049 H 0.0 **** 0.06
6311 C 88.8212877434963 90.36117166162646 28.165916015736002 C 0.0 **** -0.24
6312 H 88.8965943885456 90.03482462510999 27.128608609797965 H 0.0 **** 0.06
6313 H 88.13316194079147 91.203642366286 28.23113939034846 H 0.0 **** 0.06
6314 H 89.80508166994329 90.66589448321147 28.522503491652202 H 0.0 **** 0.06
6315 H 88.45091148761102 89.53950996072064 28.7784162784922 H 0.0 **** 0.06
6316 C 105.10467702196604 18.07892233122459 96.27321470619367 C 0.0 **** -0.24
6317 H 105.28896590387154 18.775966684286402 97.0907927857422 H 0.0 **** 0.06
6318 H 106.0504165114204 17.818498816164038 95.79694630061442 H 0.0 **** 0.06
6319 H 104.4452141377771 18.54553227110233 95.54009185982585 H 0.0 **** 0.06
6320 H 104.63305944536353 17.177287550819585 96.66386762939374 H 0.0 **** 0.06
6321 C 81.09763390580167 92.40721557401778 23.65503051731679 C 0.0 **** -0.24
6322 H 80.3837843706525 93.22815289067367 23.587466537334024 H 0.0 **** 0.06
6323 H 80.6437646398602 91.57506106054427 24.19387810712624 H 0.0 **** 0.06
6324 H 81.98752982473769 92.74359339375854 24.18789297173248 H 0.0 **** 0.06
6325 H 81.37472572271625 92.08411671196683 22.651348095214644 H 0.0 **** 0.06
6326 C 24.81227785346693 79.85920634042353 70.50551685440303 C 0.0 **** -0.24
6327 H 25.36725992521054 80.09591338377055 69.5974222357373 H 0.0 **** 0.06
6328 H 24.107370136994263 79.05250542765859 70.300521816014 H 0.0 **** 0.06
6329 H 24.266841392618232 80.74278830591169 70.83786176292097 H 0.0 **** 0.06
6330 H 25.50651761120237 79.54675278322784 71.28469525841317 H 0.0 **** 0.06
6331 C 62.272304850317404 30.778868284948544 41.16788763219506 C 0.0 **** -0.24
6332 H 63.35168833629907 30.776516679914053 41.019257766111565 H 0.0 **** 0.06
6333 H 61.93716947955263 31.793870233287265 41.38000888514418 H 0.0 **** 0.06
6334 H 62.020039382956206 30.13002189170757 42.00659295533029 H 0.0 **** 0.06
6335 H 61.78097306630875 30.414314035151335 40.26580703517433 H 0.0 **** 0.06
6336 C 60.98880336744057 92.95436593076636 92.51748360015833 C 0.0 **** -0.24
6337 H 60.943013900175 94.04299227075467 92.47339047259337 H 0.0 **** 0.06
6338 H 60.07392922224463 92.57181654813817 92.96991745574132 H 0.0 **** 0.06
6339 H 61.84644487434605 92.65118104072394 93.11887045962743 H 0.0 **** 0.06
6340 H 61.09190353001745 92.55481561109272 91.5094375028022 H 0.0 **** 0.06
6341 C 65.85612419545103 24.964355456391928 0.5887645761702665 C 0.0 **** -0.24
6342 H 65.1129422553044 24.200136978612107 0.36105674446868896 H 0.0 **** 0.06
6343 H 65.3878224709288 25.766599163254682 1.160272876904843 H 0.0 **** 0.06
6344 H 66.25892434807497 25.36722486343092 -0.3400924439803923 H 0.0 **** 0.06
6345 H 66.66254412509798 24.523399887440462 1.1747553734508376 H 0.0 **** 0.06
6346 C 19.19999903518152 8.423716062020333 26.87658176342609 C 0.0 **** -0.24
6347 H 18.50605824836356 7.585574443441601 26.806175867085216 H 0.0 **** 0.06
6348 H 20.074169212496315 8.224049619468246 26.256639865566655 H 0.0 **** 0.06
6349 H 19.510061742040193 8.552133872214597 27.913406284234384 H 0.0 **** 0.06
6350 H 18.70720401172281 9.332081457962204 26.529277100551354 H 0.0 **** 0.06
6351 C 17.605930058503475 67.59323106870255 86.45114880522365 C 0.0 **** -0.24
6352 H 17.11351029161534 67.69455496115927 87.41831134254812 H 0.0 **** 0.06
6353 H 17.041585740156336 66.89968789325536 85.826938471933 H 0.0 **** 0.06
6354 H 18.617122358808842 67.21281943455693 86.5967622233843 H 0.0 **** 0.06
6355 H 17.6504833228812 68.56709497967037 85.96378425119755 H 0.0 **** 0.06
6356 C 34.69593456821033 45.76188956423576 55.43966750647843 C 0.0 **** -0.24
6357 H 34.281408584408624 45.93554591848135 54.44642844597533 H 0.0 **** 0.06
6358 H 35.677521372550444 45.297197611394154 55.34733735647217 H 0.0 **** 0.06
6359 H 34.031884053597565 45.10287394006258 56.000016963939316 H 0.0 **** 0.06
6360 H 34.79113888186211 46.71333800013048 55.96395960323076 H 0.0 **** 0.06
6361 C 25.606795617831636 74.34142889050969 2.304920453354768 C 0.0 **** -0.24
6362 H 26.372561371619213 73.67372059910838 2.7006484125093664 H 0.0 **** 0.06
6363 H 25.457441131701223 75.17063158137753 2.996570128403434 H 0.0 **** 0.06
6364 H 24.67253249740488 73.79290241848094 2.1875014268780717 H 0.0 **** 0.06
6365 H 25.926202363257353 74.72731735754274 1.3372585772590782 H 0.0 **** 0.06
6366 C 53.92394495572054 11.2909933845649 81.55993010414724 C 0.0 **** -0.24
6367 H 53.28771030375765 10.436478963893592 81.79318698775154 H 0.0 **** 0.06
6368 H 54.94654024683544 10.94833853625751 81.40163715291564 H 0.0 **** 0.06
6369 H 53.90034943636431 11.998755666449796 82.38842749172437 H 0.0 **** 0.06
6370 H 53.559504246256125 11.778513350840484 80.65484642398573 H 0.0 **** 0.06
6371 C 74.31101760273177 77.6194976778963 25.707044393305495 C 0.0 **** -0.24
6372 H 74.51493445558836 78.01699717276117 26.700868397704056 H 0.0 **** 0.06
6373 H 74.9513882796187 78.11674240731742 24.97805520234928 H 0.0 **** 0.06
6374 H 73.26522148816241 77.79558675271718 25.45295323252654 H 0.0 **** 0.06
6375 H 74.51164942675973 76.54824683011165 25.69606199544839 H 0.0 **** 0.06
6376 C 35.421898957733305 64.84138845409885 90.56335659660806 C 0.0 **** -0.24
6377 H 34.430528055184624 64.44083594499998 90.77738837907825 H 0.0 **** 0.06
6378 H 36.02807589774561 64.80822580881451 91.46864212333514 H 0.0 **** 0.06
6379 H 35.33126965725128 65.87206087733881 90.22326292268866 H 0.0 **** 0.06
6380 H 35.8960931459263 64.24189647215786 89.78584235091293 H 0.0 **** 0.06
6381 C 64.56119132576515 33.00454001918236 3.0207139531366636 C 0.0 **** -0.24
6382 H 64.78484026958466 33.2444111423373 1.981234217016123 H 0.0 **** 0.06
6383 H 65.42550418580163 33.24089482403134 3.6417701854021374 H 0.0 **** 0.06
6384 H 64.33208101396059 31.94230585879123 3.107559781028428 H 0.0 **** 0.06
6385 H 63.703634040275944 33.58998394583858 3.3523734810472234 H 0.0 **** 0.06
6386 C 58.881561570972224 6.582962860999963 98.47800820159438 C 0.0 **** -0.24
6387 H 57.80863053715484 6.395658719691003 98.4469721625515 H 0.0 **** 0.06
6388 H 59.2989150896222 6.153453400230397 99.38928359761934 H 0.0 **** 0.06
6389 H 59.06276715329301 7.657866072630917 98.46657284824147 H 0.0 **** 0.06
6390 H 59.355618371825756 6.12581350378192 97.6090750738511 H 0.0 **** 0.06
6391 C 56.25849474376827 42.70184181172638 93.44414920038369 C 0.0 **** -0.24
6392 H 56.43418130060908 42.66405315248613 92.36940023442054 H 0.0 **** 0.06
6393 H 55.232065472235064 43.0200540790172 93.63352495393306 H 0.0 **** 0.06
6394 H 56.94886196415678 43.41120825940155 93.90074911666736 H 0.0 **** 0.06
6395 H 56.41744642178429 41.712798423982804 93.87356701268166 H 0.0 **** 0.06
6396 C 33.30151328138646 92.03818130226841 55.84077904953233 C 0.0 **** -0.24
6397 H 33.942413278611696 91.20077813016746 55.565731372308505 H 0.0 **** 0.06
6398 H 33.618622072596565 92.93064476706462 55.30169549103397 H 0.0 **** 0.06
6399 H 33.37684534327656 92.21600195765484 56.91359218834512 H 0.0 **** 0.06
6400 H 32.26830028119821 91.80534141848807 55.58308811754529 H 0.0 **** 0.06
6401 C 50.24183979241317 90.87162671679906 98.6738221110717 C 0.0 **** -0.24
6402 H 50.59485799525772 90.67503441975308 99.68640779832296 H 0.0 **** 0.06
6403 H 50.99841590099299 91.43683587065266 98.12894930960559 H 0.0 **** 0.06
6404 H 49.31688833586109 91.44722753626763 98.7162445027009 H 0.0 **** 0.06
6405 H 50.05745271266117 89.92579241743564 98.16425364567962 H 0.0 **** 0.06
6406 C 69.49484724329159 98.87898359932072 37.5605768354616 C 0.0 **** -0.24
6407 H 70.3565758595312 98.47688450662713 37.02758410191214 H 0.0 **** 0.06
6408 H 69.83373372608281 99.59900290666454 38.30595480678235 H 0.0 **** 0.06
6409 H 68.96188207627833 98.06734695256333 38.05406960691178 H 0.0 **** 0.06
6410 H 68.8294736381238 99.37455921562824 36.85353163867663 H 0.0 **** 0.06
6411 C 44.08621763412657 31.934091341118346 1.8412480108775018 C 0.0 **** -0.24
6412 H 45.11213166474579 32.0319655037417 2.197054434623805 H 0.0 **** 0.06
6413 H 43.61110320713101 31.084332157295776 2.3316241425412603 H 0.0 **** 0.06
6414 H 44.09010232271402 31.77545838778927 0.7622615901262204 H 0.0 **** 0.06
6415 H 43.533757023930775 32.844524492495026 2.072039776745452 H 0.0 **** 0.06
6416 C 92.20404392842181 1.0242619922939298 10.393510154188675 C 0.0 **** -0.24
6417 H 92.6595762480874 1.5295364772575226 9.541697882585538 H 0.0 **** 0.06
6418 H 92.10918476673308 -0.03982711135444106 10.176023890544286 H 0.0 **** 0.06
6419 H 91.21700498092028 1.4464774895933203 10.581553516892996 H 0.0 **** 0.06
6420 H 92.8316682769904 1.1614913315364959 11.274627609956212 H 0.0 **** 0.06
6421 C 77.4750052605144 10.224887862721175 66.77138561187309 C 0.0 **** -0.24
6422 H 76.80621359961827 10.766311801636562 67.44067626384589 H 0.0 **** 0.06
6423 H 77.12428128273834 10.328910409956478 65.74465286916373 H 0.0 **** 0.06
6424 H 77.48707447033073 9.16948623085014 67.04551681758949 H 0.0 **** 0.06
6425 H 78.48209648405341 10.633118011169245 66.85564435566127 H 0.0 **** 0.06
6426 C 45.66686950358298 27.923978047183937 78.34915292724122 C 0.0 **** -0.24
6427 H 46.551658819867185 27.47364790741335 77.89980035928568 H 0.0 **** 0.06
6428 H 44.95697445718557 27.140386242168113 78.61818110430897 H 0.0 **** 0.06
6429 H 45.20389572455144 28.604117802465446 77.63450315451314 H 0.0 **** 0.06
6430 H 45.95473173627103 28.476468451840738 79.24359399220589 H 0.0 **** 0.06
6431 C 0.3319153814937792 11.093682573387866 45.45260136520142 C 0.0 **** -0.24
6432 H 0.48872428958624425 10.519126441911055 46.36468593569691 H 0.0 **** 0.06
6433 H -0.6334094006731306 10.82967543263635 45.01900189007847 H 0.0 **** 0.06
6434 H 1.1249565838053535 10.867817912418616 44.74009739537229 H 0.0 **** 0.06
6435 H 0.3451273534085928 12.158442525144665 45.6857425796735 H 0.0 **** 0.06
6436 C 37.667728096365096 120.00681900431998 60.862401100353765 C 0.0 **** -0.24
6437 H 37.74762653431347 120.07338196438417 61.946599717220494 H 0.0 **** 0.06
6438 H 36.933890390336416 119.2449888907631 60.5982245282803 H 0.0 **** 0.06
6439 H 38.63735716439305 119.73816435600847 60.442287638096275 H 0.0 **** 0.06
6440 H 37.35235430517892 120.96942064071195 60.461416660608705 H 0.0 **** 0.06
6441 C 16.81084604504383 16.686025997776124 112.09970848228114 C 0.0 **** -0.24
6442 H 15.834862471621875 17.149355966271155 111.95378536337299 H 0.0 **** 0.06
6443 H 17.273931911221837 17.09345578419096 112.99954663057453 H 0.0 **** 0.06
6444 H 17.44460801306508 16.894352076683752 111.23744276504982 H 0.0 **** 0.06
6445 H 16.68797801800963 15.608763065963096 112.20969088876055 H 0.0 **** 0.06
6446 C 96.40020834356184 21.613709943654158 18.68039498855424 C 0.0 **** -0.24
6447 H 97.38460129768853 21.1711800555765 18.529726779813814 H 0.0 **** 0.06
6448 H 95.634764106197 20.933464188444162 18.305897986160375 H 0.0 **** 0.06
6449 H 96.34101708256284 22.560086738636016 18.14094842140733 H 0.0 **** 0.06
6450 H 96.2399548979945 21.79140370168085 19.742987475646828 H 0.0 **** 0.06
6451 C 54.92193705861786 33.35428762162974 50.39295174005866 C 0.0 **** -0.24
6452 H 55.2486208503845 33.39286611965332 49.353996253514566 H 0.0 **** 0.06
6453 H 53.84959362142612 33.54152566846821 50.443514216975956 H 0.0 **** 0.06
6454 H 55.451790863464964 34.112635958937574 50.968744092711745 H 0.0 **** 0.06
6455 H 55.13831318694048 32.3677587583291 50.805257949962 H 0.0 **** 0.06
6456 C 88.27579462559783 79.09630253096691 9.888689465733243 C 0.0 **** -0.24
6457 H 88.89573776747892 79.2763361573358 9.010710824361897 H 0.0 **** 0.06
6458 H 88.25447857024591 78.02806123833611 10.105141110908132 H 0.0 **** 0.06
6459 H 87.2627372435245 79.44997605746497 9.695593797158839 H 0.0 **** 0.06
6460 H 88.69098521922814 79.63289417716726 10.742221741555756 H 0.0 **** 0.06
6461 C 99.28232588348595 102.91575352692678 75.09578209869233 C 0.0 **** -0.24
6462 H 98.58392753314189 102.72573636157952 74.28071562553288 H 0.0 **** 0.06
6463 H 99.11389172737398 103.91699788842456 75.49193203954664 H 0.0 **** 0.06
6464 H 100.30390710970443 102.83944266271632 74.72483665674812 H 0.0 **** 0.06
6465 H 99.12658594261 102.18073500637271 75.88572829796158 H 0.0 **** 0.06
6466 C 99.30151544618732 17.31539124881391 65.95142699526357 C 0.0 **** -0.24
6467 H 99.20756501807014 17.909208097379263 65.04237365194899 H 0.0 **** 0.06
6468 H 100.33063611725345 17.36082694767485 66.30966357610208 H 0.0 **** 0.06
6469 H 99.03591494797732 16.280821826469033 65.7379263549685 H 0.0 **** 0.06
6470 H 98.63292568995755 17.712852626006956 66.71508026966464 H 0.0 **** 0.06
6471 C 100.05986639657684 60.768543945328254 83.30860178490676 C 0.0 **** -0.24
6472 H 100.95966974563981 61.18719842711442 82.85679481329126 H 0.0 **** 0.06
6473 H 100.34095852199442 60.03768939750025 84.06753461054379 H 0.0 **** 0.06
6474 H 99.46080207936052 60.2820143629007 82.53943731073724 H 0.0 **** 0.06
6475 H 99.48027799162949 61.5680889630898 83.77008762215249 H 0.0 **** 0.06
6476 C 7.910647451019685 113.97285252839089 72.59360605194803 C 0.0 **** -0.24
6477 H 8.187157039154584 114.18934214585877 71.56159886355954 H 0.0 **** 0.06
6478 H 6.984776748085267 114.49336295978597 72.8387090286923 H 0.0 **** 0.06
6479 H 8.705397949025325 114.30986476596985 73.25961473364464 H 0.0 **** 0.06
6480 H 7.766811662620967 112.89843916858257 72.7138491630752 H 0.0 **** 0.06
6481 C 0.08740162428092901 74.28305494691335 98.49829213191884 C 0.0 **** -0.24
6482 H -0.9077108011106247 73.86589372770487 98.34184104327437 H 0.0 **** 0.06
6483 H 0.4796962020494959 74.65058969281705 97.55021023191998 H 0.0 **** 0.06
6484 H 0.7474497297948659 73.51025155361788 98.89101275532843 H 0.0 **** 0.06
6485 H 0.027512187864772386 75.10663194888483 99.21088766442318 H 0.0 **** 0.06
6486 C 1.6034996287679633 32.53974431292953 84.06016469285635 C 0.0 **** -0.24
6487 H 0.6556645351142265 32.33381426424799 83.5629438413049 H 0.0 **** 0.06
6488 H 2.288595512624454 31.706744559996295 83.89447125546167 H 0.0 **** 0.06
6489 H 1.4344450879756323 32.66477321171165 85.12924439635393 H 0.0 **** 0.06
6490 H 2.0373259865417026 33.45259085537671 83.6510399521166 H 0.0 **** 0.06
6491 C 1.7888296506835673 4.055527443085637 61.48394414978105 C 0.0 **** -0.24
6492 H 2.641188862481499 3.7787819656836916 60.863645970505104 H 0.0 **** 0.06
6493 H 2.0623240220816683 3.9672752807499165 62.536400625572156 H 0.0 **** 0.06
6494 H 0.9517517409509537 3.39097347595046 61.26940105092427 H 0.0 **** 0.06
6495 H 1.5016608326657206 5.084643747510185 61.26782187062946 H 0.0 **** 0.06
6496 C 56.89209437642137 63.662240110662104 112.36699043608463 C 0.0 **** -0.24
6497 H 57.46286700077394 64.4989634249238 112.7677281874488 H 0.0 **** 0.06
6498 H 56.721410343534785 63.81521213467784 111.30135698586653 H 0.0 **** 0.06
6499 H 55.93395282429901 63.595997262395564 112.88216493564983 H 0.0 **** 0.06
6500 H 57.449164497986715 62.73786588525795 112.51714121948758 H 0.0 **** 0.06
6501 C 66.40629972515916 93.64692303963153 116.07895151273561 C 0.0 **** -0.24
6502 H 66.75437929323803 94.66713903828844 116.23853855539289 H 0.0 **** 0.06
6503 H 66.71058784289713 93.02314045802888 116.91970545239724 H 0.0 **** 0.06
6504 H 66.8423803127856 93.25460920272218 115.15986134164899 H 0.0 **** 0.06
6505 H 65.3196088609875 93.6426610028281 115.99600024487967 H 0.0 **** 0.06
6506 C 74.54560280656159 60.29718988632902 64.56799320330342 C 0.0 **** -0.24
6507 H 75.10827485517189 60.27276150112323 65.5016112139675 H 0.0 **** 0.06
6508 H 73.70446606779564 59.60582753562829 64.63414691969078 H 0.0 **** 0.06
6509 H 75.1949407686538 60.002723231742095 63.74448325113974 H 0.0 **** 0.06
6510 H 74.17360923408336 61.30692053670009 64.39526246945408 H 0.0 **** 0.06
6511 C 11.914528955739883 35.24431967568856 94.9272141129918 C 0.0 **** -0.24
6512 H 11.699082544754674 34.99716107156515 93.88705707125155 H 0.0 **** 0.06
6513 H 12.45735797399658 34.42081872848041 95.39072565695562 H 0.0 **** 0.06
6514 H 10.979785850781099 35.411401724419726 95.46165774957694 H 0.0 **** 0.06
6515 H 12.522496026097656 36.14818348298813 94.96616778830435 H 0.0 **** 0.06
6516 C 4.957957267608862 83.56346646049573 94.7064536790001 C 0.0 **** -0.24
6517 H 4.343062390046114 83.32553220939852 93.83891424589041 H 0.0 **** 0.06
6518 H 6.005090709490645 83.61810624993461 94.40438361571927 H 0.0 **** 0.06
6519 H 4.837619976785959 82.7874895667201 95.4613038841681 H 0.0 **** 0.06
6520 H 4.648160460630336 84.52365552898013 95.11928177256391 H 0.0 **** 0.06
6521 C 32.79257376637494 68.21271849658945 101.8924250907169 C 0.0 **** -0.24
6522 H 31.8665379145161 68.77431972035447 102.01150800689328 H 0.0 **** 0.06
6523 H 33.61988147626934 68.90631066796823 101.74145823004662 H 0.0 **** 0.06
6524 H 32.70876804357502 67.55384285063784 101.02802956479368 H 0.0 **** 0.06
6525 H 32.974656784434956 67.6180324956675 102.78693411802385 H 0.0 **** 0.06
6526 C 119.96101889485257 20.42934615710763 7.797274909183507 C 0.0 **** -0.24
6527 H 120.27272321184095 19.988499051954335 6.849774279961029 H 0.0 **** 0.06
6528 H 119.64238260635588 21.45872976956045 7.630651174771415 H 0.0 **** 0.06
6529 H 120.79771945345588 20.415934036267572 8.495727068098951 H 0.0 **** 0.06
6530 H 119.132216904535 19.85376037264834 8.209652653323499 H 0.0 **** 0.06
6531 C 2.4927677998293234 85.9694837726525 98.08083941819976 C 0.0 **** -0.24
6532 H 1.992967603108724 85.07884458518072 98.46212375787238 H 0.0 **** 0.06
6533 H 2.293221354979238 86.06845791295379 97.01308216345257 H 0.0 **** 0.06
6534 H 3.5670903156098746 85.87948893090996 98.24307448439279 H 0.0 **** 0.06
6535 H 2.1175643463847678 86.8478886041915 98.60448277446375 H 0.0 **** 0.06
6536 C 116.49962990522677 30.03755500636683 106.11100903697425 C 0.0 **** -0.24
6537 H 116.3425982153279 29.201564673007 105.42751764379096 H 0.0 **** 0.06
6538 H 117.39202070014039 30.587491047580755 105.8125812654711 H 0.0 **** 0.06
6539 H 116.6270574420649 29.657904596873465 107.12492221603495 H 0.0 **** 0.06
6540 H 115.63550922301104 30.70042161107881 106.07697386571837 H 0.0 **** 0.06
6541 C 112.62019776471737 16.54733765328166 103.93884734345312 C 0.0 **** -0.24
6542 H 113.61839626250483 16.228206164868993 103.63799685296524 H 0.0 **** 0.06
6543 H 112.50849963881518 17.61487549105857 103.74962099074546 H 0.0 **** 0.06
6544 H 112.48133978381716 16.34997651556199 105.00235015803938 H 0.0 **** 0.06
6545 H 111.87477768631626 15.99618319804091 103.36564424182012 H 0.0 **** 0.06
6546 C 56.57750666487823 81.88110749772966 33.21688143075127 C 0.0 **** -0.24
6547 H 55.58455818014755 82.3129974991993 33.09041608832558 H 0.0 **** 0.06
6548 H 57.323978648420024 82.56178065906903 32.80747850351585 H 0.0 **** 0.06
6549 H 56.627536401448594 80.92691885047643 32.691626994481254 H 0.0 **** 0.06
6550 H 56.77172013304667 81.72279629181185 34.27809718059953 H 0.0 **** 0.06
6551 C 60.73841095351897 61.72986569092387 119.60475100091554 C 0.0 **** -0.24
6552 H 60.34440170258579 60.88856779119163 120.17372341519507 H 0.0 **** 0.06
6553 H 61.40605335878798 62.316380787595676 120.2368679654495 H 0.0 **** 0.06
6554 H 59.91366668250786 62.35753366006276 119.26742337211749 H 0.0 **** 0.06
6555 H 61.28976942174791 61.35912289472344 118.74039819521093 H 0.0 **** 0.06
6556 C 35.44406800615462 103.99661152796679 9.34476356584068 C 0.0 **** -0.24
6557 H 35.43259796093008 104.49016214009436 10.317397336388325 H 0.0 **** 0.06
6558 H 36.45866498639651 103.66885260437942 9.115933398050572 H 0.0 **** 0.06
6559 H 35.105172438555314 104.6946088621217 8.579203870880633 H 0.0 **** 0.06
6560 H 34.77949845070515 103.13228598984873 9.369276145909737 H 0.0 **** 0.06
6561 C 95.24163200768484 38.06728118088688 66.2220259103778 C 0.0 **** -0.24
6562 H 94.642032102955 37.29583286217962 65.73780010357962 H 0.0 **** 0.06
6563 H 95.5443099286856 38.80851649573779 65.48323138942979 H 0.0 **** 0.06
6564 H 96.12783896128207 37.61202187739673 66.66398781240875 H 0.0 **** 0.06
6565 H 94.65257481131155 38.54874492025377 67.00214601405264 H 0.0 **** 0.06
6566 C 43.066774740103824 8.164943221053093 88.26167901549704 C 0.0 **** -0.24
6567 H 42.739655470704065 9.084930377707138 87.7759580962321 H 0.0 **** 0.06
6568 H 43.45467630334349 7.476420314467596 87.51121869523007 H 0.0 **** 0.06
6569 H 42.22204025290671 7.704850305797837 88.77395751562972 H 0.0 **** 0.06
6570 H 43.849926321079636 8.394571768472986 88.98441581222082 H 0.0 **** 0.06
6571 C 43.639497355203304 30.56400642549434 20.18703628652097 C 0.0 **** -0.24
6572 H 42.98024469958165 29.905257592999874 20.753187411131336 H 0.0 **** 0.06
6573 H 43.04126853344965 31.29064383186116 19.636814954149795 H 0.0 **** 0.06
6574 H 44.229999592164376 29.973214780824577 19.48774565041451 H 0.0 **** 0.06
6575 H 44.30447350144067 31.086746541917336 20.8739974089683 H 0.0 **** 0.06
6576 C 29.69942019932771 13.303513543972983 106.91150679802797 C 0.0 **** -0.24
6577 H 29.173469077121062 12.546285702102125 107.49230925996446 H 0.0 **** 0.06
6578 H 29.875619586071046 12.928944576287385 105.90332279899476 H 0.0 **** 0.06
6579 H 30.653433273114253 13.52799800054914 107.38832322076615 H 0.0 **** 0.06
6580 H 29.094763826944288 14.209042495422462 106.86370401564488 H 0.0 **** 0.06
6581 C 73.24031133101431 18.258037134981834 31.98096784930678 C 0.0 **** -0.24
6582 H 74.04729051644665 18.945159822802708 31.726159793758256 H 0.0 **** 0.06
6583 H 73.46923712172489 17.267121398137675 31.588016008754593 H 0.0 **** 0.06
6584 H 72.30740327541955 18.616622598194766 31.546758087120395 H 0.0 **** 0.06
6585 H 73.13809964071316 18.2041838270616 33.06567648438035 H 0.0 **** 0.06
6586 C 86.1602006782503 86.67590003507985 60.884990417296585 C 0.0 **** -0.24
6587 H 85.4729709547045 86.48964517162548 61.70997558852125 H 0.0 **** 0.06
6588 H 85.6907829451076 87.34933448707451 60.166424291748704 H 0.0 **** 0.06
6589 H 86.40404341825831 85.73355031421079 60.394500000818304 H 0.0 **** 0.06
6590 H 87.07323896193478 87.13239024501323 61.26861128515953 H 0.0 **** 0.06
6591 C 92.2629613526162 90.37365654637088 7.21287937010581 C 0.0 **** -0.24
6592 H 91.8785462288059 90.40943359147553 6.19310429956559 H 0.0 **** 0.06
6593 H 91.43009796681639 90.29278799145462 7.912000271591239 H 0.0 **** 0.06
6594 H 92.82427429234235 91.28413829203595 7.421443203915217 H 0.0 **** 0.06
6595 H 92.91690500930147 89.50919282034542 7.325201491607743 H 0.0 **** 0.06
6596 C 121.87361097774836 64.52068289859213 80.70063420779718 C 0.0 **** -0.24
6597 H 120.89834013489777 64.0637476958724 80.86755369789415 H 0.0 **** 0.06
6598 H 122.29778279479314 64.14189400057097 79.77071519398518 H 0.0 **** 0.06
6599 H 122.53605103019366 64.27289848292855 81.530855423312 H 0.0 **** 0.06
6600 H 121.76134791499683 65.60325045783412 80.6361078731143 H 0.0 **** 0.06
6601 C 50.677367443577026 118.17262509869728 112.40965323161006 C 0.0 **** -0.24
6602 H 51.39757488262066 118.20429229991309 113.22698642057836 H 0.0 **** 0.06
6603 H 49.672278635658074 118.31818316836895 112.80603750024267 H 0.0 **** 0.06
6604 H 50.735741042488456 117.20432520803874 111.91175864554222 H 0.0 **** 0.06
6605 H 50.90411742840007 118.96302619298615 111.69505011690191 H 0.0 **** 0.06
6606 C 35.96494093802108 0.6636655089508992 39.283908443876896 C 0.0 **** -0.24
6607 H 34.973628402071846 0.5203665357900178 38.85439596678381 H 0.0 **** 0.06
6608 H 36.24927282164246 1.7126559652599127 39.201582712044626 H 0.0 **** 0.06
6609 H 36.68547185955366 0.04849988713762343 38.74463708831021 H 0.0 **** 0.06
6610 H 35.951530453138616 0.37120582263725055 40.33390397982066 H 0.0 **** 0.06
6611 C 101.00101482483325 75.62914559890851 112.0483725130972 C 0.0 **** -0.24
6612 H 101.58056712480342 75.96847984268169 112.90721275515301 H 0.0 **** 0.06
6613 H 100.75883430583514 76.48217970619726 111.41389195338553 H 0.0 **** 0.06
6614 H 100.08029568677694 75.16024663648358 112.39387952846641 H 0.0 **** 0.06
6615 H 101.58507714048386 74.90689629736448 111.47852406530512 H 0.0 **** 0.06
6616 C 11.70773151948515 100.88452600580462 28.852898610629467 C 0.0 **** -0.24
6617 H 11.938069696709533 101.18852949860272 29.87395704470549 H 0.0 **** 0.06
6618 H 11.670532769138902 101.76494882773827 28.211351233426996 H 0.0 **** 0.06
6619 H 10.742316945692153 100.37880738556089 28.83364998847381 H 0.0 **** 0.06
6620 H 12.481490250454272 100.20564415222685 28.493512996276934 H 0.0 **** 0.06
6621 C 87.98280285646541 26.43153796588382 86.25981780970736 C 0.0 **** -0.24
6622 H 88.35831945213553 26.97178766644967 87.12975560289715 H 0.0 **** 0.06
6623 H 87.07136076001751 26.909539240568193 85.90158020088043 H 0.0 **** 0.06
6624 H 87.7672622530826 25.40017587851716 86.53967249236027 H 0.0 **** 0.06
6625 H 88.73527381222493 26.44469269154797 85.47186698908368 H 0.0 **** 0.06
6626 C 17.725856203768522 95.3082097433115 33.419323664706525 C 0.0 **** -0.24
6627 H 17.587653147471823 96.09963948491577 34.156300622240224 H 0.0 **** 0.06
6628 H 16.793926587010517 94.75394335621328 33.30252400764178 H 0.0 **** 0.06
6629 H 18.511611928094208 94.6319818449189 33.75534728401257 H 0.0 **** 0.06
6630 H 18.0095235973835 95.74790173638749 32.46344351699631 H 0.0 **** 0.06
6631 C 85.17740766669829 78.74638006501044 25.084720906975008 C 0.0 **** -0.24
6632 H 86.16569390348099 78.61180250754401 25.522490518854745 H 0.0 **** 0.06
6633 H 84.48107112161097 78.03681064907687 25.533298516933 H 0.0 **** 0.06
6634 H 85.23021712709715 78.57506089857435 24.009663224198782 H 0.0 **** 0.06
6635 H 84.83221136988081 79.76255642337836 25.27398322821339 H 0.0 **** 0.06
6636 C 35.0264165144665 34.37240934805621 40.655443914119815 C 0.0 **** -0.24
6637 H 34.02890871854696 34.57155838626025 40.26560688891152 H 0.0 **** 0.06
6638 H 35.4020054718323 33.439890554592665 40.232705420007534 H 0.0 **** 0.06
6639 H 34.98304310046871 34.28863817845405 41.74081399008597 H 0.0 **** 0.06
6640 H 35.69309523717967 35.19022329080656 40.38137461433868 H 0.0 **** 0.06
6641 C 56.92086141809702 68.44412678940978 48.38117684599419 C 0.0 **** -0.24
6642 H 56.46085950793366 69.28631445648188 47.86311471632686 H 0.0 **** 0.06
6643 H 57.90966143566595 68.2562592859401 47.962536827181 H 0.0 **** 0.06
6644 H 56.298047100241035 67.55796692321977 48.25828601645841 H 0.0 **** 0.06
6645 H 57.01332071102374 68.6782699228263 49.441897084052755 H 0.0 **** 0.06
6646 C 72.50096838111997 113.27807345308052 3.902384216122641 C 0.0 **** -0.24
6647 H 72.57360939005184 114.33918246234565 3.6653545872262896 H 0.0 **** 0.06
6648 H 71.65643847916348 112.8432193874672 3.3681386773815234 H 0.0 **** 0.06
6649 H 72.35330277837133 113.15530844820158 4.976302214803326 H 0.0 **** 0.06
6650 H 73.4199971172039 112.77551340054326 3.602544845316544 H 0.0 **** 0.06
6651 C 80.14133550443498 3.3429795848673933 39.4138444561417 C 0.0 **** -0.24
6652 H 80.87575488048813 3.981760783756684 39.904221736342436 H 0.0 **** 0.06
6653 H 79.16217236339483 3.5004345393049334 39.867870554685396 H 0.0 **** 0.06
6654 H 80.43260118916697 2.298976280298561 39.5309920225518 H 0.0 **** 0.06
6655 H 80.09430519858185 3.5902217017431326 38.352976107604206 H 0.0 **** 0.06
6656 C 117.24532443820868 104.53425609499794 109.07580696872415 C 0.0 **** -0.24
6657 H 117.68645149178984 104.46617522761787 108.08134276528025 H 0.0 **** 0.06
6658 H 117.8612428874903 105.17974063799588 109.70239880292678 H 0.0 **** 0.06
6659 H 117.19318887691666 103.53996477942223 109.51832447053738 H 0.0 **** 0.06
6660 H 116.24080737941684 104.95119777839466 108.99896115427055 H 0.0 **** 0.06
6661 C 24.170730923237812 95.09678762507352 37.58018630797744 C 0.0 **** -0.24
6662 H 24.141407174905254 94.02830812469307 37.79269931959783 H 0.0 **** 0.06
6663 H 24.522898015908396 95.25362898671926 36.560534275735904 H 0.0 **** 0.06
6664 H 24.84907547785366 95.58787996759128 38.27864544406452 H 0.0 **** 0.06
6665 H 23.170867309503222 95.51683847642201 37.688828648409924 H 0.0 **** 0.06
6666 C 85.65222760646844 32.09980830872212 108.79501900855499 C 0.0 **** -0.24
6667 H 85.82144026039373 33.077361186173334 108.34515959059419 H 0.0 **** 0.06
6668 H 85.75802701221193 31.326770073920187 108.03400094516297 H 0.0 **** 0.06
6669 H 84.6468547623532 32.06266795929881 109.21510256800465 H 0.0 **** 0.06
6670 H 86.3833822871448 31.93382639513419 109.5864695694051 H 0.0 **** 0.06
6671 C 28.779914854033564 37.187889277005766 71.7854976376949 C 0.0 **** -0.24
6672 H 28.200119995574596 36.281092273344626 71.9580208280345 H 0.0 **** 0.06
6673 H 29.259692463357226 37.49442118424258 72.71460620237713 H 0.0 **** 0.06
6674 H 28.11721068806088 37.981423232447156 71.43996010230427 H 0.0 **** 0.06
6675 H 29.540580566040774 36.993294884428366 71.0292715866675 H 0.0 **** 0.06
6676 C 8.999561702397614 35.80308641090244 66.35518063304872 C 0.0 **** -0.24
6677 H 9.543007172296456 34.89475827090422 66.61428313869317 H 0.0 **** 0.06
6678 H 9.70194535529697 36.63010625471719 66.25205206201946 H 0.0 **** 0.06
6679 H 8.280409895966812 36.03179332248817 67.14145916877277 H 0.0 **** 0.06
6680 H 8.471933770004512 35.6542955936705 65.41332599461455 H 0.0 **** 0.06
6681 C 122.08304491313885 73.44594042891904 25.80673253153131 C 0.0 **** -0.24
6682 H 121.99726985885177 73.47851451376928 26.892661476517674 H 0.0 **** 0.06
6683 H 123.1239635279912 73.27759337004835 25.528560108336947 H 0.0 **** 0.06
6684 H 121.74287264893728 74.39358332486267 25.387915196664522 H 0.0 **** 0.06
6685 H 121.46659221614298 72.63574553844546 25.417793694808196 H 0.0 **** 0.06
6686 C 18.11019270466784 32.00788724091785 59.3965092185955 C 0.0 **** -0.24
6687 H 18.923329398207628 32.09897496063107 60.116425780044494 H 0.0 **** 0.06
6688 H 17.169285965150863 31.865052429838414 59.92851851263731 H 0.0 **** 0.06
6689 H 18.294377038420848 31.152251664376394 58.74732820732663 H 0.0 **** 0.06
6690 H 18.053964979665636 32.91530978708073 58.79474603608662 H 0.0 **** 0.06
6691 C 97.38785589120286 44.04953094082464 89.0285016112307 C 0.0 **** -0.24
6692 H 97.67564916800472 43.018604047003464 89.23241543913787 H 0.0 **** 0.06
6693 H 97.09159441908156 44.535737694550164 89.95812265036488 H 0.0 **** 0.06
6694 H 96.55055272409169 44.06133217459296 88.32931610207734 H 0.0 **** 0.06
6695 H 98.23220131843209 44.58319517951401 88.59162012194105 H 0.0 **** 0.06
6696 C 1.320245637906794 42.5026261316695 34.1198944286821 C 0.0 **** -0.24
6697 H 1.8084265528732715 41.955687780771484 33.31250850345174 H 0.0 **** 0.06
6698 H 0.997411410426011 41.80068301083088 34.8890186500019 H 0.0 **** 0.06
6699 H 0.45496659216094315 43.03548235110651 33.726416962727086 H 0.0 **** 0.06
6700 H 2.0225035477602233 43.21629601386758 34.55142228418123 H 0.0 **** 0.06
6701 C 1.1280529867039206 91.30878496065702 4.429762925760858 C 0.0 **** -0.24
6702 H 1.9520637803478849 91.62845186432764 5.067210476045364 H 0.0 **** 0.06
6703 H 1.4492544699149903 91.31936650804522 3.388197868140187 H 0.0 **** 0.06
6704 H 0.28561804392424506 91.98876747294645 4.557051137695016 H 0.0 **** 0.06
6705 H 0.8249383622434721 90.29930690332645 4.707157396699582 H 0.0 **** 0.06
6706 C 118.20445320601428 97.88938048923578 51.62965749995055 C 0.0 **** -0.24
6707 H 117.94610904919165 97.64338409634846 50.599110913858055 H 0.0 **** 0.06
6708 H 117.52815078356065 98.66052572656432 51.99890024051954 H 0.0 **** 0.06
6709 H 119.23078859633566 98.25587556508833 51.66806601245004 H 0.0 **** 0.06
6710 H 118.11309577131755 96.9977165376119 52.24925277225561 H 0.0 **** 0.06
6711 C 74.10497690562585 93.57410808602035 48.07062137059921 C 0.0 **** -0.24
6712 H 74.42994225154479 92.8001175138146 47.37387438673839 H 0.0 **** 0.06
6713 H 73.78654084698846 93.11105436669743 49.00453938321437 H 0.0 **** 0.06
6714 H 73.27192211016376 94.12626447248982 47.635712005062196 H 0.0 **** 0.06
6715 H 74.93100416680795 94.2569256782044 48.26528296660581 H 0.0 **** 0.06
6716 C 23.362632328932136 97.00753818921817 102.59113879702483 C 0.0 **** -0.24
6717 H 22.502872311170364 96.69093622946662 103.18182573019095 H 0.0 **** 0.06
6718 H 24.026565714502425 97.61065197685423 103.21195394784826 H 0.0 **** 0.06
6719 H 23.021355398012986 97.59867563077933 101.74219673304356 H 0.0 **** 0.06
6720 H 23.899315357389213 96.13012435557403 102.23153989531045 H 0.0 **** 0.06
6721 C 27.469698042541033 7.888788308147468 7.39443869373855 C 0.0 **** -0.24
6722 H 27.735066924427457 6.938579722170516 6.930695074954485 H 0.0 **** 0.06
6723 H 28.00188260083487 7.992245501975219 8.340354316950823 H 0.0 **** 0.06
6724 H 26.39564121669065 7.915242429863667 7.577198702935618 H 0.0 **** 0.06
6725 H 27.745992387182277 8.706864240084201 6.729655795657038 H 0.0 **** 0.06
6726 C 24.208686577435948 108.69540954489648 9.208448427958984 C 0.0 **** -0.24
6727 H 25.22483280211639 108.3520202566904 9.402769767604184 H 0.0 **** 0.06
6728 H 24.08445792016876 108.8771790395927 8.14028023147381 H 0.0 **** 0.06
6729 H 24.025728277617183 109.61853019988973 9.758455380352785 H 0.0 **** 0.06
6730 H 23.500120789801272 107.93306315097212 9.531927355848154 H 0.0 **** 0.06
6731 C 92.6382992837905 87.86873455558165 78.88762934033323 C 0.0 **** -0.24
6732 H 92.68822743539641 86.94704670831351 79.46757660882139 H 0.0 **** 0.06
6733 H 92.61832853339996 87.62887627395153 77.82490441865335 H 0.0 **** 0.06
6734 H 93.51168607623373 88.48212908218596 79.10679534669961 H 0.0 **** 0.06
6735 H 91.73402797580576 88.41703211015408 79.15442214563416 H 0.0 **** 0.06
6736 C 17.96882827503572 66.71011392733493 120.36348406452885 C 0.0 **** -0.24
6737 H 17.921999314569575 65.82583543770028 120.99827432482027 H 0.0 **** 0.06
6738 H 17.866577190104863 67.604344481456 120.97874952885445 H 0.0 **** 0.06
6739 H 17.15878099884071 66.67666870015807 119.63384371237535 H 0.0 **** 0.06
6740 H 18.925892827936366 66.73368012673177 119.84220850064492 H 0.0 **** 0.06
6741 C 72.09825415579851 30.749542051979603 87.73316645476748 C 0.0 **** -0.24
6742 H 72.66231240738003 31.246460444492897 86.94352694338144 H 0.0 **** 0.06
6743 H 72.76042304553894 30.08596230109356 88.29062451257289 H 0.0 **** 0.06
6744 H 71.28854789029853 30.168516202520777 87.2910851437696 H 0.0 **** 0.06
6745 H 71.68221972096151 31.497998290285153 88.40784397585301 H 0.0 **** 0.06
6746 C 69.86101287839614 49.06514352299426 11.456401208694274 C 0.0 **** -0.24
6747 H 69.23769964699804 49.93995300444261 11.271836577192488 H 0.0 **** 0.06
6748 H 69.5003474862772 48.229204837315486 10.856982221727321 H 0.0 **** 0.06
6749 H 69.81426763562888 48.80175918997998 12.512691727537543 H 0.0 **** 0.06
6750 H 70.8922735240904 49.29036924635872 11.182996688111643 H 0.0 **** 0.06
6751 C 27.446407190967278 61.15686652840566 104.3907435415768 C 0.0 **** -0.24
6752 H 28.2242934137918 61.89848957666163 104.20667709357741 H 0.0 **** 0.06
6753 H 26.901700366810985 60.96646740791675 103.46553230719792 H 0.0 **** 0.06
6754 H 26.7579367288414 61.532480731632006 105.14754371780882 H 0.0 **** 0.06
6755 H 27.90243403947997 60.23131263513312 104.74061147787526 H 0.0 **** 0.06
6756 C 90.48267108225525 67.72621792309735 106.050521757191 C 0.0 **** -0.24
6757 H 90.57931878358738 68.79845668196722 105.8800213314237 H 0.0 **** 0.06
6758 H 89.53576969026437 67.5222746405039 106.55019365800948 H 0.0 **** 0.06
6759 H 91.3059182745917 67.3828742891084 106.67706333001536 H 0.0 **** 0.06
6760 H 90.51007507230213 67.20260730539664 105.09501662338914 H 0.0 **** 0.06
6761 C 27.76647274842213 53.73463955324229 94.81356425656114 C 0.0 **** -0.24
6762 H 27.066020578157122 52.90279468797249 94.74565286720528 H 0.0 **** 0.06
6763 H 27.539381607364533 54.32968536904386 95.69911115919405 H 0.0 **** 0.06
6764 H 27.676846205510458 54.358169889883385 93.92410536302307 H 0.0 **** 0.06
6765 H 28.783637210699965 53.34858873650279 94.88612043050279 H 0.0 **** 0.06
6766 C 34.00561281780597 18.37726102467917 12.90874492664728 C 0.0 **** -0.24
6767 H 33.568142995363985 17.600410618179296 12.280035261074016 H 0.0 **** 0.06
6768 H 33.51629760690335 19.329162300424144 12.70202113840363 H 0.0 **** 0.06
6769 H 35.07110305942257 18.46140829031654 12.694441586742641 H 0.0 **** 0.06
6770 H 33.865533125100626 18.116555471246954 13.95756588186169 H 0.0 **** 0.06
6771 C 24.678854115851692 79.45885360618183 94.71710410969311 C 0.0 **** -0.24
6772 H 24.976295565235034 78.41034901809644 94.75257095485901 H 0.0 **** 0.06
6773 H 24.559912896007205 79.76796379584505 93.67871015846066 H 0.0 **** 0.06
6774 H 25.445909943596064 80.0697622074714 95.19369743924662 H 0.0 **** 0.06
6775 H 23.733434582971853 79.5855250721786 95.2450779769328 H 0.0 **** 0.06
6776 C 9.589070827425488 60.38925886858783 62.06147096496834 C 0.0 **** -0.24
6777 H 10.285338399791712 61.021480657021925 61.50971082396159 H 0.0 **** 0.06
6778 H 9.260571470909667 59.5683772542032 61.42330113797862 H 0.0 **** 0.06
6779 H 8.725570362836578 60.98124040914371 62.365978717336255 H 0.0 **** 0.06
6780 H 10.084965970918901 59.9879333454183 62.94424945267266 H 0.0 **** 0.06
6781 C 42.8405848581198 22.10566797258923 102.61424956723505 C 0.0 **** -0.24
6782 H 42.87198472318164 23.194559206165877 102.57128351013844 H 0.0 **** 0.06
6783 H 41.82474473195747 21.76381469132923 102.41348015474239 H 0.0 **** 0.06
6784 H 43.147213826323075 21.772932059714435 103.60647216352581 H 0.0 **** 0.06
6785 H 43.51825621346367 21.69342869133652 101.86661433515542 H 0.0 **** 0.06
6786 C 34.52335911820145 122.5577399665496 19.667156103531056 C 0.0 **** -0.24
6787 H 34.477304878726486 123.17754255218523 18.771623357347977 H 0.0 **** 0.06
6788 H 35.01616975929896 121.61416749594326 19.431160685306935 H 0.0 **** 0.06
6789 H 33.512711395366814 122.36158190325699 20.025610199462704 H 0.0 **** 0.06
6790 H 35.08776680442511 123.07894828213801 20.440536991192204 H 0.0 **** 0.06
6791 C 57.39076131113932 48.185467398295486 80.62453206003815 C 0.0 **** -0.24
6792 H 56.65182346816403 48.75735622139257 81.18688891804618 H 0.0 **** 0.06
6793 H 56.95019086389113 47.24059662782656 80.30372661792754 H 0.0 **** 0.06
6794 H 58.25524893345081 47.987382143332866 81.2583597365724 H 0.0 **** 0.06
6795 H 57.70311763683579 48.757481511375204 79.75088653412891 H 0.0 **** 0.06
6796 C 66.05492767635303 103.49760277673619 93.72230004089619 C 0.0 **** -0.24
6797 H 65.06715960842484 103.23482124457266 94.10003434122513 H 0.0 **** 0.06
6798 H 66.32170050171993 102.82577752478122 92.90633605187062 H 0.0 **** 0.06
6799 H 66.78627434922885 103.40402131678917 94.5246588413936 H 0.0 **** 0.06
6800 H 66.04281136644056 104.52431347008181 93.35900900895467 H 0.0 **** 0.06
6801 C 26.927453146411438 75.6666981866928 79.2382210349239 C 0.0 **** -0.24
6802 H 27.802534886530907 75.3657626182383 78.66133203509003 H 0.0 **** 0.06
6803 H 26.724343134355706 74.91957501062544 80.00534449437333 H 0.0 **** 0.06
6804 H 26.066447997595276 75.7492585681565 78.57428873902171 H 0.0 **** 0.06
6805 H 27.116418768494043 76.63078094664579 79.70927463745537 H 0.0 **** 0.06
6806 C 87.15746621402195 48.45572120473562 107.87670604795184 C 0.0 **** -0.24
6807 H 87.49669659983795 48.77476390031822 106.890794451239 H 0.0 **** 0.06
6808 H 86.1992557327138 48.92636255152009 108.09987773475743 H 0.0 **** 0.06
6809 H 87.89155013180365 48.75120711005362 108.62600771285221 H 0.0 **** 0.06
6810 H 87.04157951398767 47.37224187839051 107.88779282471847 H 0.0 **** 0.06
6811 C 118.32226291722482 59.29074582609826 57.35442719091179 C 0.0 **** -0.24
6812 H 118.0782330187888 60.03328033098171 56.595316530843434 H 0.0 **** 0.06
6813 H 117.56129526672707 58.50935383311753 57.35542881359444 H 0.0 **** 0.06
6814 H 118.35413384532526 59.76862130703637 58.33357906815547 H 0.0 **** 0.06
6815 H 119.29411057968649 58.85047908585284 57.1324870673449 H 0.0 **** 0.06
6816 C 115.20262076756282 75.73047555619806 7.362959218508365 C 0.0 **** -0.24
6817 H 115.51261343569847 76.42800273190102 8.14062526194219 H 0.0 **** 0.06
6818 H 114.72605186917217 76.28021500879845 6.551007387425528 H 0.0 **** 0.06
6819 H 114.49610237549857 75.0128618666329 7.779739099154526 H 0.0 **** 0.06
6820 H 116.07571538988188 75.20082261746006 6.9804651255113015 H 0.0 **** 0.06
6821 C 5.415262795969941 118.1735983556865 33.54698633380127 C 0.0 **** -0.24
6822 H 6.442877770047289 118.34873189244405 33.22673034067216 H 0.0 **** 0.06
6823 H 4.85033319009419 119.10339419749508 33.479079251652834 H 0.0 **** 0.06
6824 H 5.412525759796189 117.82110821707784 34.57894679863648 H 0.0 **** 0.06
6825 H 4.9575622902922944 117.42066102923516 32.905576369390545 H 0.0 **** 0.06
6826 C 81.49362458361207 50.11882596882211 36.53769070098991 C 0.0 **** -0.24
6827 H 80.84504926211338 49.45037653029382 37.10424480202019 H 0.0 **** 0.06
6828 H 80.91130925224113 50.61706166444418 35.76157069476278 H 0.0 **** 0.06
6829 H 82.2960436175872 49.54197193860699 36.0763108909579 H 0.0 **** 0.06
6830 H 81.92095789190265 50.864137500750786 37.20784892389784 H 0.0 **** 0.06
6831 C 111.52058911082548 100.20617379323105 26.265126298076325 C 0.0 **** -0.24
6832 H 110.83653349391344 100.28989266881737 27.109455130295487 H 0.0 **** 0.06
6833 H 111.95036844865751 101.18473137935206 26.04777639633977 H 0.0 **** 0.06
6834 H 110.97693520346624 99.84532809461746 25.39145015997292 H 0.0 **** 0.06
6835 H 112.31764608717876 99.50499977351402 26.51140920792102 H 0.0 **** 0.06
6836 C 119.34016225278496 83.64537959749009 12.678025235425022 C 0.0 **** -0.24
6837 H 119.434417649099 82.57415423968473 12.500269006940947 H 0.0 **** 0.06
6838 H 120.31819830707222 84.11697379297658 12.580349535620464 H 0.0 **** 0.06
6839 H 118.95388272459364 83.81372039522324 13.683498583992346 H 0.0 **** 0.06
6840 H 118.65391741791989 84.07594214922293 11.948628870106926 H 0.0 **** 0.06
6841 C 64.15013432300526 15.75192211633933 108.94155142775398 C 0.0 **** -0.24
6842 H 63.6967010237663 16.374304015584556 108.17014288499473 H 0.0 **** 0.06
6843 H 63.443843538773216 15.618336768428875 109.76144987137246 H 0.0 **** 0.06
6844 H 65.05320844103503 16.23396428929948 109.3141873566669 H 0.0 **** 0.06
6845 H 64.40464182654298 14.779960627202016 108.52003882921719 H 0.0 **** 0.06
6846 C 97.44248801977199 72.90336618034334 25.19119979439938 C 0.0 **** -0.24
6847 H 97.13131437942778 73.14508027762832 24.17484237825738 H 0.0 **** 0.06
6848 H 97.31953364685506 71.83357310932715 25.363261401083264 H 0.0 **** 0.06
6849 H 96.82884526618659 73.4594550416702 25.900096042698692 H 0.0 **** 0.06
6850 H 98.48921196252704 73.17511078300899 25.324638701942376 H 0.0 **** 0.06
6851 C 93.14696771249959 49.08987233297597 116.22238817046843 C 0.0 **** -0.24
6852 H 92.08474820379337 49.15322757956982 115.98516467917513 H 0.0 **** 0.06
6853 H 93.38381569180166 48.08126273759527 116.55964296118641 H 0.0 **** 0.06
6854 H 93.38578784832993 49.80321038163725 117.01112253247668 H 0.0 **** 0.06
6855 H 93.73196848663287 49.32401114558139 115.33281228503692 H 0.0 **** 0.06
6856 C 10.10322419102667 68.20536531111156 98.92403133106183 C 0.0 **** -0.24
6857 H 9.286025162215537 67.56202992353747 98.59646835230973 H 0.0 **** 0.06
6858 H 10.468961777446566 68.7873972819516 98.07825776897647 H 0.0 **** 0.06
6859 H 10.912404972706014 67.59127244252818 99.32063894631901 H 0.0 **** 0.06
6860 H 9.744129708037633 68.87886594227905 99.7026353502686 H 0.0 **** 0.06
6861 C 100.08084389488414 111.49247962701082 59.476672147870595 C 0.0 **** -0.24
6862 H 100.92169758095724 111.25334611523111 58.82480756881018 H 0.0 **** 0.06
6863 H 99.50201691545672 112.3049659766055 59.0370661801448 H 0.0 **** 0.06
6864 H 100.4539249339943 111.79746295589598 60.45355276866933 H 0.0 **** 0.06
6865 H 99.44659483365555 110.61315740258229 59.587756203022856 H 0.0 **** 0.06
6866 C 35.241416264992495 71.41956630260356 35.775062171141485 C 0.0 **** -0.24
6867 H 35.18064751089548 70.71482604166184 36.60480881489218 H 0.0 **** 0.06
6868 H 35.10250812527153 70.88470556923517 34.834315775854805 H 0.0 **** 0.06
6869 H 36.218113590568805 71.9027050698557 35.77843177953537 H 0.0 **** 0.06
6870 H 34.462011504065856 72.17428442146522 35.882169282755 H 0.0 **** 0.06
6871 C 68.89957221949822 8.881282732601981 31.66327640777098 C 0.0 **** -0.24
6872 H 68.36581865093984 8.25581658405364 32.37842277224087 H 0.0 **** 0.06
6873 H 68.81827552980573 8.443914112611136 30.66747233725323 H 0.0 **** 0.06
6874 H 69.9494383975175 8.944879504344708 31.948477319767278 H 0.0 **** 0.06
6875 H 68.46244101173144 9.880036772538645 31.6580963649389 H 0.0 **** 0.06
6876 C 113.63552693337402 108.21937122983394 89.96398669661801 C 0.0 **** -0.24
6877 H 113.09781749273316 109.03545967387981 90.44577533360655 H 0.0 **** 0.06
6878 H 113.64824061844226 108.37972571397094 88.8862149696798 H 0.0 **** 0.06
6879 H 113.13853625304321 107.27570074754655 90.18600097854113 H 0.0 **** 0.06
6880 H 114.65895289384332 108.18728599899558 90.33863053907137 H 0.0 **** 0.06
6881 C 117.86968209719593 80.5050038059504 92.58201532905258 C 0.0 **** -0.24
6882 H 118.77782703108298 80.51320389860575 93.18350895530494 H 0.0 **** 0.06
6883 H 117.1744609329059 81.25304309385237 92.96266197365668 H 0.0 **** 0.06
6884 H 117.40756016169337 79.5183822140497 92.63649819722264 H 0.0 **** 0.06
6885 H 118.11784784001411 80.73275364049934 91.545463885787 H 0.0 **** 0.06
6886 C 105.05150051620396 103.7810536099056 120.13724838435711 C 0.0 **** -0.24
6887 H 106.08083953344234 103.66290853667377 120.47512119102291 H 0.0 **** 0.06
6888 H 104.83616137624327 104.83934098551791 119.98949853333761 H 0.0 **** 0.06
6889 H 104.37401537704608 103.37297467989117 120.8885410738896 H 0.0 **** 0.06
6890 H 104.91402163372737 103.24694021599325 119.19752633966824 H 0.0 **** 0.06
6891 C 57.70970021735624 97.20022709452988 34.834598894926984 C 0.0 **** -0.24
6892 H 58.636444378833914 97.64862394039008 34.47651977136516 H 0.0 **** 0.06
6893 H 56.93014473902602 97.33065894959688 34.08434501219742 H 0.0 **** 0.06
6894 H 57.40620291579245 97.68662909545853 35.762013391856186 H 0.0 **** 0.06
6895 H 57.86673852494346 96.13699337699595 35.01673393267234 H 0.0 **** 0.06
6896 C 91.29238927531208 7.3599989836394855 17.31811443594114 C 0.0 **** -0.24
6897 H 90.9645189601523 7.013496886840102 18.298320790340313 H 0.0 **** 0.06
6898 H 90.47969737208484 7.898452974380405 16.83203088332499 H 0.0 **** 0.06
6899 H 91.57690894915129 6.502844381973631 16.70785082707215 H 0.0 **** 0.06
6900 H 92.15011892600671 8.022515648669554 17.43624009233332 H 0.0 **** 0.06
6901 C 70.8026091335075 120.95000712180864 109.0433141693785 C 0.0 **** -0.24
6902 H 70.39490817711379 121.96031387087056 109.06173389382425 H 0.0 **** 0.06
6903 H 69.987982823371 120.23089923860869 108.95849113880536 H 0.0 **** 0.06
6904 H 71.35659181199011 120.76588047218485 109.96437483860115 H 0.0 **** 0.06
6905 H 71.47252597636984 120.84402753755658 108.1901847146955 H 0.0 **** 0.06
6906 C 64.22616289187098 61.06889307486159 56.299651118872085 C 0.0 **** -0.24
6907 H 63.22938361893659 60.707434369384885 56.04546643214673 H 0.0 **** 0.06
6908 H 64.28738036725991 61.2370317502357 57.37554796219795 H 0.0 **** 0.06
6909 H 64.41920967967843 62.004003048897175 55.77386180168866 H 0.0 **** 0.06
6910 H 64.96672588860423 60.32608606415897 56.00480324661212 H 0.0 **** 0.06
6911 C 83.37305127105944 114.99153018103384 1.4817954744021336 C 0.0 **** -0.24
6912 H 84.34694287558867 114.93218957680517 0.9946609649234404 H 0.0 **** 0.06
6913 H 82.63530328377144 114.45557849952502 0.884710198022816 H 0.0 **** 0.06
6914 H 83.07761742196709 116.03631881658355 1.5748150657661597 H 0.0 **** 0.06
6915 H 83.43563510486447 114.5424242147846 2.4729756906545504 H 0.0 **** 0.06
6916 C 40.80882323528865 6.808411429427082 97.00515765962587 C 0.0 **** -0.24
6917 H 41.61160844203511 7.545450121862501 97.03975607695006 H 0.0 **** 0.06
6918 H 41.156784529678816 5.916681929518148 96.48400456102982 H 0.0 **** 0.06
6919 H 39.9538472479865 7.2281815135809495 96.4754593980978 H 0.0 **** 0.06
6920 H 40.513194993222946 6.544343859016152 98.02043268602159 H 0.0 **** 0.06
6921 C 52.67688914075637 56.53705827186991 117.4309671501473 C 0.0 **** -0.24
6922 H 53.69342597090082 56.897373960846295 117.58740429732141 H 0.0 **** 0.06
6923 H 52.118618242776876 56.60725608574302 118.36460412990144 H 0.0 **** 0.06
6924 H 52.70753186926649 55.49735422076711 117.10196752523682 H 0.0 **** 0.06
6925 H 52.188938822864486 57.144322342894185 116.66780201053338 H 0.0 **** 0.06
6926 C 70.04684030192249 47.75162108998188 45.25748523295559 C 0.0 **** -0.24
6927 H 69.36295543742557 48.59628869285228 45.350937689744484 H 0.0 **** 0.06
6928 H 71.02540345568832 48.110624112741334 44.93893052154499 H 0.0 **** 0.06
6929 H 69.65787030038314 47.05030008354515 44.51905017726523 H 0.0 **** 0.06
6930 H 70.13942938980904 47.25145384199516 46.22160458401021 H 0.0 **** 0.06
6931 C 12.087713210090868 80.36583885866807 77.1057371765962 C 0.0 **** -0.24
6932 H 12.834864110763363 81.09571549269111 77.41952824266286 H 0.0 **** 0.06
6933 H 12.096974435450164 80.2814220046925 76.01845422096713 H 0.0 **** 0.06
6934 H 11.10154527590663 80.68993271478462 77.43765446535855 H 0.0 **** 0.06
6935 H 12.319734933143877 79.3971095789353 77.54774351818926 H 0.0 **** 0.06
6936 C 1.107991014690219 69.5576528995972 120.98420266858238 C 0.0 **** -0.24
6937 H 0.9855652676302231 70.47469296850394 120.40792879771851 H 0.0 **** 0.06
6938 H 1.8429009474941243 68.91806747056782 120.4943567184034 H 0.0 **** 0.06
6939 H 0.15298401363619973 69.03575650564977 121.04214999516108 H 0.0 **** 0.06
6940 H 1.4508814345001824 69.80317692845833 121.98895547419808 H 0.0 **** 0.06
6941 C 96.58924168331114 10.823144410218582 2.34102376958586 C 0.0 **** -0.24
6942 H 96.38950306670901 9.978025442105093 2.9990135009225867 H 0.0 **** 0.06
6943 H 97.24507788592368 11.531747115362897 2.848583922022044 H 0.0 **** 0.06
6944 H 95.65016631585704 11.315700637900022 2.0867522552015885 H 0.0 **** 0.06
6945 H 97.07230080296816 10.469243678845007 1.43039142119423 H 0.0 **** 0.06
6946 C 115.04178378280977 90.46885200033489 73.96074332171486 C 0.0 **** -0.24
6947 H 114.93589120124605 89.50910814649717 73.45506098899943 H 0.0 **** 0.06
6948 H 114.077879597175 90.97615397055006 73.98307038481562 H 0.0 **** 0.06
6949 H 115.76415981470863 91.08390176035186 73.42423164213142 H 0.0 **** 0.06
6950 H 115.39082412482495 90.30442809143233 74.98089175624602 H 0.0 **** 0.06
6951 C 92.10753075641514 1.8137995138238256 94.7941824696 C 0.0 **** -0.24
6952 H 91.70011752379548 0.8288335705179275 95.0253420674442 H 0.0 **** 0.06
6953 H 91.74006754508218 2.5374614472710437 95.52133808456631 H 0.0 **** 0.06
6954 H 91.79270996408809 2.110393637142714 93.79346675239734 H 0.0 **** 0.06
6955 H 93.19618887951947 1.7749181148280417 94.8367368937287 H 0.0 **** 0.06
6956 C 122.06044892736912 60.97590249404044 79.2100792254559 C 0.0 **** -0.24
6957 H 121.88377444738641 61.226994230118635 78.16377035683061 H 0.0 **** 0.06
6958 H 121.49113640202187 61.65399603095398 79.84696352682093 H 0.0 **** 0.06
6959 H 123.12295419173857 61.07457094247786 79.43279482457172 H 0.0 **** 0.06
6960 H 121.74384850703655 59.95028761073087 79.39579764457542 H 0.0 **** 0.06
6961 C 30.388540811461752 35.09581346049025 106.64573626044216 C 0.0 **** -0.24
6962 H 29.429560476757302 34.735307253847594 106.27445727400715 H 0.0 **** 0.06
6963 H 30.75322922897331 35.892201849070034 105.9959931620482 H 0.0 **** 0.06
6964 H 31.106637107165426 34.27592286715908 106.65518331984742 H 0.0 **** 0.06
6965 H 30.26409841021362 35.48088942056591 107.65798461945542 H 0.0 **** 0.06
6966 C 86.90507502497894 20.783270691860878 47.82875777755754 C 0.0 **** -0.24
6967 H 86.84393862663134 21.86100172802736 47.67900712022728 H 0.0 **** 0.06
6968 H 86.09020184009273 20.45950602719273 48.476776527866406 H 0.0 **** 0.06
6969 H 87.86019822551265 20.535171890744948 48.29241802419199 H 0.0 **** 0.06
6970 H 86.82733280533225 20.2776083982111 46.86655151481688 H 0.0 **** 0.06
6971 C 0.1285668092546075 112.61758353984933 90.45434336605345 C 0.0 **** -0.24
6972 H 0.3777654248225417 111.96097094142345 89.62037027846793 H 0.0 **** 0.06
6973 H 0.06013106319431927 112.03149118555993 91.37073816224927 H 0.0 **** 0.06
6974 H -0.828106062664574 113.10272257874075 90.26026279922618 H 0.0 **** 0.06
6975 H 0.9052159195967988 113.37513515218475 90.56479656003057 H 0.0 **** 0.06
6976 C 49.68752129074238 57.93920533050121 92.60920093020658 C 0.0 **** -0.24
6977 H 50.35342144689352 58.696427328831675 93.02305109048464 H 0.0 **** 0.06
6978 H 49.80224382373302 57.90865868272297 91.52549672956286 H 0.0 **** 0.06
6979 H 48.65615581786247 58.186524365730236 92.8592382198133 H 0.0 **** 0.06
6980 H 49.940461391197516 56.96547893851283 93.02870104728814 H 0.0 **** 0.06
6981 C 95.78011868775539 18.726251544656122 29.717978569897213 C 0.0 **** -0.24
6982 H 95.10402474191264 17.928889192702968 30.02723802256898 H 0.0 **** 0.06
6983 H 95.91883162736559 18.685656726766922 28.63713909709449 H 0.0 **** 0.06
6984 H 96.74317633059476 18.5974804486639 30.21248957927679 H 0.0 **** 0.06
6985 H 95.35581604982175 19.691495260530218 29.99409441887059 H 0.0 **** 0.06
6986 C 43.484636767585485 67.40374660394602 59.56834659948322 C 0.0 **** -0.24
6987 H 43.30165468430679 67.98233810575314 58.66317228925607 H 0.0 **** 0.06
6988 H 42.54027473004562 67.22838000707611 60.08362713183834 H 0.0 **** 0.06
6989 H 44.158937310377326 67.9573125810374 60.222911873481735 H 0.0 **** 0.06
6990 H 43.937543159449156 66.44787395037403 59.304046710838634 H 0.0 **** 0.06
6991 C 107.10839132930562 100.81231648397045 20.013763516319983 C 0.0 **** -0.24
6992 H 107.15620137164368 99.7275806130055 19.912899868945345 H 0.0 **** 0.06
6993 H 107.40988013658847 101.27759442024416 19.074679316393883 H 0.0 **** 0.06
6994 H 107.77953006364532 101.13209195965243 20.810128071976777 H 0.0 **** 0.06
6995 H 106.08838808805825 101.10949497236157 20.256105066102435 H 0.0 **** 0.06
6996 C 16.77725409459184 80.46217447336028 10.250350380096933 C 0.0 **** -0.24
6997 H 16.33448834225122 79.5402461225153 10.628340824838034 H 0.0 **** 0.06
6998 H 16.095145185565148 80.92676975638247 9.538372301404237 H 0.0 **** 0.06
6999 H 17.721018917832403 80.23475769896245 9.755895497310604 H 0.0 **** 0.06
7000 H 16.956599696019552 81.14446062828262 11.08098800344817 H 0.0 **** 0.06
7001 C 56.54738336701104 61.345631834803555 100.25211409789534 C 0.0 **** -0.24
7002 H 56.49112006883132 60.90338109632731 101.24656511802249 H 0.0 **** 0.06
7003 H 56.24759137854602 60.60620884112558 99.50809887974248 H 0.0 **** 0.06
7004 H 57.569343388469974 61.666691841319164 100.05374513568546 H 0.0 **** 0.06
7005 H 55.87977823027626 62.20548757131692 100.19931629407932 H 0.0 **** 0.06
7006 C 15.572875585974032 9.91821509987004 73.31802407001283 C 0.0 **** -0.24
7007 H 16.039200435193635 8.96310972342663 73.08132837751276 H 0.0 **** 0.06
7008 H 14.987596377014398 10.259802158344463 72.46351852227215 H 0.0 **** 0.06
7009 H 16.344747547863903 10.653708292218308 73.54677201207443 H 0.0 **** 0.06
7010 H 14.91845824820274 9.799110150397016 74.18235222908632 H 0.0 **** 0.06
7011 C 104.81445515895416 70.37441055275141 58.67052265264232 C 0.0 **** -0.24
7012 H 104.1503423140692 69.51327796588711 58.59079202166424 H 0.0 **** 0.06
7013 H 105.5482061025985 70.34144745755768 57.86437242724668 H 0.0 **** 0.06
7014 H 105.32795520014011 70.3495365994234 59.63114279975184 H 0.0 **** 0.06
7015 H 104.23034933835154 71.29116194089258 58.59374779566332 H 0.0 **** 0.06
7016 C 92.13233200971627 62.60542753867025 117.43105631025401 C 0.0 **** -0.24
7017 H 92.12201572054809 62.033315974787634 118.35874594451963 H 0.0 **** 0.06
7018 H 91.46018483756899 63.45852055969694 117.52335259220712 H 0.0 **** 0.06
7019 H 91.80315647977275 61.969108196607685 116.60890039099678 H 0.0 **** 0.06
7020 H 93.14432592983445 62.95838807268975 117.23369807825617 H 0.0 **** 0.06
7021 C 114.59600800082777 57.45778191260146 26.99416295748776 C 0.0 **** -0.24
7022 H 115.33088315042495 56.690327579089455 27.236916910104384 H 0.0 **** 0.06
7023 H 114.68735357974285 57.729022739693306 25.94192173747706 H 0.0 **** 0.06
7024 H 114.77193998709475 58.337819925540515 27.61320915194659 H 0.0 **** 0.06
7025 H 113.59285658624782 57.0739173457317 27.184571633830984 H 0.0 **** 0.06
7026 C 50.272542488707245 121.24382910438942 19.257377721187737 C 0.0 **** -0.24
7027 H 49.2826097241159 121.68106417301536 19.127413335450143 H 0.0 **** 0.06
7028 H 50.936567755296494 121.97869751183043 19.71384027816444 H 0.0 **** 0.06
7029 H 50.66982219789571 120.94815138459464 18.286613268772953 H 0.0 **** 0.06
7030 H 50.19973511742165 120.36824608063634 19.903137453301213 H 0.0 **** 0.06
7031 C 50.5455637650972 120.28511164243861 120.61462897636699 C 0.0 **** -0.24
7032 H 49.64045212866415 120.5987717964742 121.13382288108946 H 0.0 **** 0.06
7033 H 50.27577290405324 119.69298877060548 119.73959264582474 H 0.0 **** 0.06
7034 H 51.1589450444032 119.6845003945165 121.28586636532167 H 0.0 **** 0.06
7035 H 51.10617417474097 121.16453330988624 120.29945669461344 H 0.0 **** 0.06
7036 C 94.85196112652048 25.878273700790032 80.47881787297288 C 0.0 **** -0.24
7037 H 95.31228149331065 24.897903349598664 80.35296356943707 H 0.0 **** 0.06
7038 H 95.16120677679905 26.531518913536928 79.6626426642787 H 0.0 **** 0.06
7039 H 95.16867120842161 26.30847448385596 81.42902792823222 H 0.0 **** 0.06
7040 H 93.76775321668961 25.774401910026143 80.47033896218602 H 0.0 **** 0.06
7041 C 111.3938896092012 36.20059734973523 107.67414035477412 C 0.0 **** -0.24
7042 H 111.62841064951685 37.219163487362266 107.36416929246278 H 0.0 **** 0.06
7043 H 112.1029657777357 35.881518058738266 108.43864056782678 H 0.0 **** 0.06
7044 H 111.46234292094275 35.53464246314144 106.8138396089866 H 0.0 **** 0.06
7045 H 110.38323845690371 36.1671200916071 108.07971475092648 H 0.0 **** 0.06
7046 C 26.832668852110118 60.438010464263556 59.358190648137594 C 0.0 **** -0.24
7047 H 26.271575635545588 60.09718007203733 58.487803837070174 H 0.0 **** 0.06
7048 H 26.95440669005157 61.52035007275654 59.3094358469223 H 0.0 **** 0.06
7049 H 27.812279142602463 59.96137594407327 59.36859624824655 H 0.0 **** 0.06
7050 H 26.290137441964788 60.17363980922448 60.26617577269883 H 0.0 **** 0.06
7051 C 120.02313104630122 34.043578977729396 90.13454365932202 C 0.0 **** -0.24
7052 H 119.99735009614461 34.049442056698254 89.04459130759881 H 0.0 **** 0.06
7053 H 119.03503004639717 34.293999424009115 90.52184353825956 H 0.0 **** 0.06
7054 H 120.7474239534627 34.77965381855455 90.48352467251036 H 0.0 **** 0.06
7055 H 120.31209510869073 33.05375952371321 90.48617454615285 H 0.0 **** 0.06
7056 C 93.71058347493283 62.578037866501376 95.73035078105485 C 0.0 **** -0.24
7057 H 92.7721439514961 62.33266239920661 96.22716689175601 H 0.0 **** 0.06
7058 H 93.76300966923395 63.65476501641487 95.56725479513133 H 0.0 **** 0.06
7059 H 93.75923140494382 62.06156986554771 94.77119418965367 H 0.0 **** 0.06
7060 H 94.54557137384728 62.26374380111963 96.35580064037697 H 0.0 **** 0.06
7061 C 80.80136525379288 108.69064796131624 17.539506333457723 C 0.0 **** -0.24
7062 H 80.137372699607 108.55710398026497 18.39461517098735 H 0.0 **** 0.06
7063 H 80.82284195801918 107.77363137391819 16.950978136257078 H 0.0 **** 0.06
7064 H 81.8063579343833 108.91955481417858 17.893838784514145 H 0.0 **** 0.06
7065 H 80.43701587895185 109.51138118143137 16.9216992114128 H 0.0 **** 0.06
7066 C 58.77665571736714 89.70461500559452 79.91194404903004 C 0.0 **** -0.24
7067 H 57.79988466608723 89.91514255575265 80.34608172884481 H 0.0 **** 0.06
7068 H 59.44330609369043 89.32369380751564 80.68478450706002 H 0.0 **** 0.06
7069 H 59.19153219532122 90.62143021112695 79.4925414475178 H 0.0 **** 0.06
7070 H 58.67054630376146 88.95948571258029 79.12278796706192 H 0.0 **** 0.06
7071 C 55.356666577617005 75.81709189349209 8.639150078690477 C 0.0 **** -0.24
7072 H 55.32125190235644 75.24998267160916 7.708096293539484 H 0.0 **** 0.06
7073 H 54.772471114579986 75.30194386133161 9.400726217213617 H 0.0 **** 0.06
7074 H 54.943412708395016 76.81258372508952 8.473607207220141 H 0.0 **** 0.06
7075 H 56.39173179482245 75.90426960522154 8.971173018976287 H 0.0 **** 0.06
7076 C 39.60823609263639 52.915150088779306 16.66115744201295 C 0.0 **** -0.24
7077 H 39.08400977363692 52.132672825670035 17.210250562791146 H 0.0 **** 0.06
7078 H 40.66031368885007 52.64610886392022 16.561008824716566 H 0.0 **** 0.06
7079 H 39.524237396337696 53.85706344063026 17.202906060861892 H 0.0 **** 0.06
7080 H 39.16482720614266 53.024529280765414 15.67178802502508 H 0.0 **** 0.06
7081 C 16.4770696064719 75.27043330306458 89.14425637447161 C 0.0 **** -0.24
7082 H 15.455912173143133 74.8894084657552 89.12933316028037 H 0.0 **** 0.06
7083 H 16.502412179685905 76.21881486867869 89.68256612379963 H 0.0 **** 0.06
7084 H 16.823571742737784 75.42362444949276 88.12264205261684 H 0.0 **** 0.06
7085 H 17.12637612203224 74.55206779219756 89.64428352071874 H 0.0 **** 0.06
7086 C 86.28626251839108 79.9432249941309 104.78183492964172 C 0.0 **** -0.24
7087 H 86.43320966722143 79.71113302041056 103.72764523775481 H 0.0 **** 0.06
7088 H 87.19797332693955 80.38069756455232 105.18890162189405 H 0.0 **** 0.06
7089 H 86.0481112483669 79.02861897662376 105.32559864559977 H 0.0 **** 0.06
7090 H 85.46466266108808 80.65219113943076 104.88737092865335 H 0.0 **** 0.06
7091 C 52.07819813872766 102.74537617035207 61.56240857269487 C 0.0 **** -0.24
7092 H 52.47033444097029 101.72880477164699 61.59662633426401 H 0.0 **** 0.06
7093 H 52.32701201375201 103.26219709411617 62.490212438689404 H 0.0 **** 0.06
7094 H 50.99526177258993 102.71266757064649 61.443757436140835 H 0.0 **** 0.06
7095 H 52.52030838856243 103.27688998206932 60.720484198505595 H 0.0 **** 0.06
7096 C 12.769227314461489 0.5438712901835459 85.04182910348999 C 0.0 **** -0.24
7097 H 11.748709277397609 0.6163299700995566 84.66725635466253 H 0.0 **** 0.06
7098 H 12.751868126035788 0.21389992579568684 86.0803538575905 H 0.0 **** 0.06
7099 H 13.249519823909054 1.5207660091303268 84.97871815493187 H 0.0 **** 0.06
7100 H 13.326334936567605 -0.17475422750892733 84.43989252175956 H 0.0 **** 0.06
7101 C 104.89253106820266 115.23053375325489 34.970437028046774 C 0.0 **** -0.24
7102 H 105.22817418512506 114.93858684376082 35.96624168153579 H 0.0 **** 0.06
7103 H 104.58717592183285 114.34273430666826 34.41577806927526 H 0.0 **** 0.06
7104 H 105.70763243509359 115.72685587684971 34.44433037754942 H 0.0 **** 0.06
7105 H 104.04747764352075 115.91303788765516 35.05764318228199 H 0.0 **** 0.06
7106 C 19.03261030755707 57.427091178917436 7.879663575644443 C 0.0 **** -0.24
7107 H 19.655310125118262 56.53830543114384 7.766880200913846 H 0.0 **** 0.06
7108 H 18.038815225426013 57.22670336201975 7.479523381201233 H 0.0 **** 0.06
7109 H 19.483789361342865 58.25690267493536 7.33603277414521 H 0.0 **** 0.06
7110 H 18.95409055137531 57.6839606798994 8.935633644994994 H 0.0 **** 0.06
7111 C 79.93348552661084 70.07550919894004 31.4066622786778 C 0.0 **** -0.24
7112 H 80.03522003121867 68.99899625674652 31.270247139025628 H 0.0 **** 0.06
7113 H 79.0461776666987 70.42550425293496 30.87845077470314 H 0.0 **** 0.06
7114 H 80.8158458018161 70.5766907834543 31.00922867341987 H 0.0 **** 0.06
7115 H 79.83638094548735 70.29865664631063 32.46905158332956 H 0.0 **** 0.06
7116 C 1.8296166999439425 25.337915107747335 98.51233454811376 C 0.0 **** -0.24
7117 H 1.0219243910953342 25.873317709852586 99.01241491436286 H 0.0 **** 0.06
7118 H 1.4892101823174002 24.339326909164868 98.23937830373694 H 0.0 **** 0.06
7119 H 2.6831859155901405 25.259161321917816 99.18572490439834 H 0.0 **** 0.06
7120 H 2.12375508415883 25.880758538618238 97.61465381992667 H 0.0 **** 0.06
7121 C 113.9249909069515 117.80404464963448 35.37908237609872 C 0.0 **** -0.24
7122 H 113.69963702798492 118.80006339514635 34.998248548655 H 0.0 **** 0.06
7123 H 114.939314222544 117.52658115800556 35.09248624162757 H 0.0 **** 0.06
7124 H 113.21880625363053 117.08687692762075 34.96000976495412 H 0.0 **** 0.06
7125 H 113.84050598205073 117.80298829636665 36.46558745410124 H 0.0 **** 0.06
7126 C 7.693482591020938 100.10510809809702 27.404465432060192 C 0.0 **** -0.24
7127 H 8.39200454853713 99.28897423468823 27.593104780836157 H 0.0 **** 0.06
7128 H 8.229350644264827 101.05467067698254 27.432564391169166 H 0.0 **** 0.06
7129 H 6.91728306763784 100.10196545512056 28.169637665110315 H 0.0 **** 0.06
7130 H 7.238469342889971 99.97313342777159 26.423581812463482 H 0.0 **** 0.06
7131 C 25.37705909477421 21.9168318422669 63.83942230050025 C 0.0 **** -0.24
7132 H 26.349615961118502 21.681137485206534 63.40916382703265 H 0.0 **** 0.06
7133 H 24.619593540680057 21.907042638247617 63.05495668744221 H 0.0 **** 0.06
7134 H 25.413438497056973 22.90509580354393 64.29872945083375 H 0.0 **** 0.06
7135 H 25.12597628870384 21.17366035403012 64.59700645968113 H 0.0 **** 0.06
7136 C 75.24495238215565 32.604238607393995 119.73028898532421 C 0.0 **** -0.24
7137 H 75.13426935256518 33.09234717266713 118.76225314079448 H 0.0 **** 0.06
7138 H 76.02887050320214 31.849256141467094 119.66876666112938 H 0.0 **** 0.06
7139 H 74.30287762216761 32.128729779115815 120.00679710359519 H 0.0 **** 0.06
7140 H 75.51173717520922 33.34528939649789 120.48340033044391 H 0.0 **** 0.06
7141 C 44.42797111307493 109.92228954781811 38.90100664770972 C 0.0 **** -0.24
7142 H 43.37825156990641 110.1773479081952 39.053425016712424 H 0.0 **** 0.06
7143 H 45.055411944057425 110.72603291064291 39.285982916778835 H 0.0 **** 0.06
7144 H 44.61815101297532 109.78902002948146 37.836509154243345 H 0.0 **** 0.06
7145 H 44.65631445748164 108.99689814253998 39.430078675116135 H 0.0 **** 0.06
7146 C 14.292978787257283 13.942752609943113 78.44727420577655 C 0.0 **** -0.24
7147 H 13.776349305979664 13.438220835921413 79.26332123726715 H 0.0 **** 0.06
7148 H 15.214323556584333 14.38807387558495 78.82112959447545 H 0.0 **** 0.06
7149 H 13.650662836493183 14.723310333071765 78.0394090387392 H 0.0 **** 0.06
7150 H 14.528345451780154 13.221463306196597 77.66531554465905 H 0.0 **** 0.06
7151 C 84.80904986917474 115.8602665217737 26.45403524863964 C 0.0 **** -0.24
7152 H 84.405179423004 115.95497134304046 27.46246315335935 H 0.0 **** 0.06
7153 H 83.9887434418431 115.77021742319099 25.74222092499211 H 0.0 **** 0.06
7154 H 85.43889124634237 114.97250920777086 26.397167708824156 H 0.0 **** 0.06
7155 H 85.40175830147354 116.74288133802995 26.216054440125816 H 0.0 **** 0.06
7156 C 90.4069725775596 77.4701539103275 110.24229862248603 C 0.0 **** -0.24
7157 H 90.77738361147536 77.45417102121979 109.21672151313928 H 0.0 **** 0.06
7158 H 90.85553532138076 76.65000814518521 110.80332317219515 H 0.0 **** 0.06
7159 H 89.32354479709389 77.35874032838603 110.23909180492325 H 0.0 **** 0.06
7160 H 90.67419492241248 78.4185571187819 110.70879484281829 H 0.0 **** 0.06
7161 C 8.983645979286479 54.86030921225887 99.43533476950145 C 0.0 **** -0.24
7162 H 9.355513682933264 54.12409600125966 98.72323322612931 H 0.0 **** 0.06
7163 H 7.929101925565476 55.055952732719106 99.23643861369857 H 0.0 **** 0.06
7164 H 9.551151461855056 55.78517108543923 99.33177717730405 H 0.0 **** 0.06
7165 H 9.097285776318671 54.47550099675004 100.44871118177278 H 0.0 **** 0.06
7166 C 80.58163125999238 39.84498578624721 38.35268537000778 C 0.0 **** -0.24
7167 H 79.51320112648551 39.809774720758014 38.56451156006065 H 0.0 **** 0.06
7168 H 80.98211438645905 40.80947139794932 38.667815503233484 H 0.0 **** 0.06
7169 H 80.74457712171662 39.7159631915153 37.28240784611975 H 0.0 **** 0.06
7170 H 81.08591903713767 39.04629970148915 38.89580824198376 H 0.0 **** 0.06
7171 C 95.94866984135112 22.358646266558992 51.510843477335584 C 0.0 **** -0.24
7172 H 95.79120857721833 21.32892754262315 51.191150835352346 H 0.0 **** 0.06
7173 H 95.44649734030824 22.523304713191976 52.46463095588507 H 0.0 **** 0.06
7174 H 95.53985666639991 23.037327551150668 50.76320482598277 H 0.0 **** 0.06
7175 H 97.016650105487 22.54442528269925 51.62557991652176 H 0.0 **** 0.06
7176 C 53.05633956250347 15.71916643823409 52.095015643576914 C 0.0 **** -0.24
7177 H 52.850415464387964 15.244194980598255 51.136702326975296 H 0.0 **** 0.06
7178 H 52.377399425523265 16.56056315903231 52.236663185587986 H 0.0 **** 0.06
7179 H 54.08547771899774 16.07704691237378 52.10995929134975 H 0.0 **** 0.06
7180 H 52.91141528457189 14.995938359974112 52.898586003519085 H 0.0 **** 0.06
7181 C 33.18505377311542 18.285411169176754 34.215675489283996 C 0.0 **** -0.24
7182 H 33.954583638675054 17.577211362470223 34.52310508505282 H 0.0 **** 0.06
7183 H 33.52743225061906 18.835004580077765 33.33871528328308 H 0.0 **** 0.06
7184 H 32.98763191758059 18.983466865402306 35.02829034357987 H 0.0 **** 0.06
7185 H 32.271007960657585 17.743313405190506 33.9706439243662 H 0.0 **** 0.06
7186 C 3.073545747576077 1.8653361628114453 45.0504778354272 C 0.0 **** -0.24
7187 H 2.983712091588984 2.949370639355351 45.114385984704775 H 0.0 **** 0.06
7188 H 2.0869101875627223 1.413020758379048 45.14942307552814 H 0.0 **** 0.06
7189 H 3.7203932797982304 1.5065474187655923 45.85034468119617 H 0.0 **** 0.06
7190 H 3.5031058783962976 1.5931380405957896 44.08654921410321 H 0.0 **** 0.06
7191 C 93.5444148561227 38.96293496378689 61.596627530963524 C 0.0 **** -0.24
7192 H 92.56122450218575 38.81186612208518 62.041796080496276 H 0.0 **** 0.06
7193 H 94.31022898934611 38.570047706658556 62.26549556876373 H 0.0 **** 0.06
7194 H 93.71152623861337 40.02892053453934 61.43844806637188 H 0.0 **** 0.06
7195 H 93.59394806846802 38.441649719151826 60.63981596563854 H 0.0 **** 0.06
7196 C 16.058386034652102 57.34668119148708 62.34640739277042 C 0.0 **** -0.24
7197 H 15.274834981122353 56.620852184075346 62.56369089765105 H 0.0 **** 0.06
7198 H 16.615357089674887 57.563944215827775 63.25881917050078 H 0.0 **** 0.06
7199 H 15.607970675087216 58.26492491732316 61.96838273745674 H 0.0 **** 0.06
7200 H 16.734998563509407 56.93821747427083 61.59627942759068 H 0.0 **** 0.06
7201 C 112.97904831749128 60.27739712562167 86.27494543277851 C 0.0 **** -0.24
7202 H 112.13471013232986 59.620280600609355 86.0656178082429 H 0.0 **** 0.06
7203 H 112.69081003928932 61.31131216477143 86.08540517451928 H 0.0 **** 0.06
7204 H 113.81655129726853 60.009650984173156 85.62967807129377 H 0.0 **** 0.06
7205 H 113.27504724682865 60.16661998241228 87.31866965459676 H 0.0 **** 0.06
7206 C 84.03723050447789 56.911819312404646 47.02615662397643 C 0.0 **** -0.24
7207 H 83.0493158954061 56.4701384693376 47.157632479438874 H 0.0 **** 0.06
7208 H 84.53651069180913 56.97757882362464 47.99303310521698 H 0.0 **** 0.06
7209 H 83.93493054735427 57.909751063748615 46.601064859529885 H 0.0 **** 0.06
7210 H 84.62703244616552 56.28885878458027 46.35379885136322 H 0.0 **** 0.06
7211 C 80.01982262320823 110.5622675025939 102.73913110007493 C 0.0 **** -0.24
7212 H 80.10012329932164 111.61237997864504 103.01849586085928 H 0.0 **** 0.06
7213 H 79.99778831462802 110.47657230633087 101.65241909177598 H 0.0 **** 0.06
7214 H 79.10350315199034 110.1439477847535 103.15603323277617 H 0.0 **** 0.06
7215 H 80.87915976909773 110.01601645493872 103.12900368621717 H 0.0 **** 0.06
7216 C 50.198003290714155 33.180971637458214 81.72653599702667 C 0.0 **** -0.24
7217 H 49.947927311574574 32.3381081600665 81.08237197969942 H 0.0 **** 0.06
7218 H 50.05587667235304 34.112692240864504 81.17796336399547 H 0.0 **** 0.06
7219 H 51.23773528345117 33.10063013996975 82.04317891440752 H 0.0 **** 0.06
7220 H 49.5496793713352 33.17303353880513 82.6028174699716 H 0.0 **** 0.06
7221 C 8.762964441963732 0.37371779441821573 81.10256043476426 C 0.0 **** -0.24
7222 H 8.572407700514418 0.8514225365829464 80.14059705912916 H 0.0 **** 0.06
7223 H 8.37686144195763 1.0040477122121025 81.90357965602362 H 0.0 **** 0.06
7224 H 9.835772770763839 0.23614812927735507 81.23333100307832 H 0.0 **** 0.06
7225 H 8.265855396966202 -0.5956286211973385 81.13077784198947 H 0.0 **** 0.06
7226 C 12.528519798849288 42.43864708422353 19.173850343412923 C 0.0 **** -0.24
7227 H 11.770663760711756 42.71834400929802 18.440947843185455 H 0.0 **** 0.06
7228 H 13.481927361603539 42.89325820417244 18.902078459715312 H 0.0 **** 0.06
7229 H 12.633716114790076 41.353713318771725 19.190239555632317 H 0.0 **** 0.06
7230 H 12.225898434443252 42.79014821921649 20.159743002975915 H 0.0 **** 0.06
7231 C 77.63076467292231 0.048219040398635116 96.37244883355933 C 0.0 **** -0.24
7232 H 77.02479415689913 0.9432205679116805 96.51145997681314 H 0.0 **** 0.06
7233 H 78.51875902482243 0.2982124510311337 95.78997687946526 H 0.0 **** 0.06
7234 H 77.04891090464866 -0.7047451163218739 95.84139679465338 H 0.0 **** 0.06
7235 H 77.93064746173707 -0.3425389701056929 97.34443627132296 H 0.0 **** 0.06
7236 C 51.8233000152469 59.47186360986931 98.66928222830828 C 0.0 **** -0.24
7237 H 52.44440369130372 60.215457204141394 99.16768453950931 H 0.0 **** 0.06
7238 H 52.291484299922274 58.49125193161898 98.75498720679215 H 0.0 **** 0.06
7239 H 51.71856092669414 59.733217131319556 97.61567354398949 H 0.0 **** 0.06
7240 H 50.839473142078646 59.447114947585995 99.13726436994475 H 0.0 **** 0.06
7241 C 25.756822705666927 111.73509194558909 108.68588455658795 C 0.0 **** -0.24
7242 H 26.137054559697106 111.02115368066427 107.95403817974608 H 0.0 **** 0.06
7243 H 26.489787624909525 111.8645281583922 109.48128806594843 H 0.0 **** 0.06
7244 H 24.824112448075695 111.36006781496273 109.10671181668005 H 0.0 **** 0.06
7245 H 25.57570427130004 112.69273113708354 108.19762189111793 H 0.0 **** 0.06
7246 C 92.83565209772652 52.26617116932033 66.31666220447656 C 0.0 **** -0.24
7247 H 93.07083134348241 53.30607911954286 66.54268054407336 H 0.0 **** 0.06
7248 H 92.08060355621248 52.22775173759601 65.53110838207664 H 0.0 **** 0.06
7249 H 92.4533744500043 51.77687127225636 67.21245042358137 H 0.0 **** 0.06
7250 H 93.7368552387183 51.75430433537662 65.97940657186996 H 0.0 **** 0.06
7251 C 47.051407213757386 102.12842026123445 53.44228257257282 C 0.0 **** -0.24
7252 H 47.79101176867596 102.5619596610083 54.116422687492815 H 0.0 **** 0.06
7253 H 46.08262129732432 102.59629844553197 53.61742246934426 H 0.0 **** 0.06
7254 H 46.97643288281904 101.05635520496466 53.625973961840316 H 0.0 **** 0.06
7255 H 47.35745249563274 102.30051513410447 52.40988980542315 H 0.0 **** 0.06
7256 C 86.9485627058989 41.079903145417376 6.439793518639451 C 0.0 **** -0.24
7257 H 87.83162926481475 40.45544926476532 6.304679022128237 H 0.0 **** 0.06
7258 H 86.41778757849863 41.16822265265216 5.491699865729107 H 0.0 **** 0.06
7259 H 87.25221355091486 42.070416278972914 6.779203372488947 H 0.0 **** 0.06
7260 H 86.29298775833581 40.6264315309148 7.182162715470277 H 0.0 **** 0.06
7261 C 94.09799254151778 83.19351327177861 74.36305564073055 C 0.0 **** -0.24
7262 H 94.17666473586692 82.6333520260236 73.43127712729941 H 0.0 **** 0.06
7263 H 94.97446722916587 83.83042833313397 74.47909189726505 H 0.0 **** 0.06
7264 H 94.03889058198232 82.49956959303813 75.20093582435564 H 0.0 **** 0.06
7265 H 93.1991899920015 83.8118276585318 74.33914807911887 H 0.0 **** 0.06
7266 C 30.019888366933742 94.07675582687611 26.634463379605187 C 0.0 **** -0.24
7267 H 29.381126954627746 93.35179007907402 26.128923360647143 H 0.0 **** 0.06
7268 H 29.400968036989923 94.78036522545511 27.19147916468289 H 0.0 **** 0.06
7269 H 30.610096802676367 94.61883325785678 25.8944469704495 H 0.0 **** 0.06
7270 H 30.68700091810615 93.55624260939615 27.320590108391144 H 0.0 **** 0.06
7271 C 16.888163305566536 115.88548600916357 69.23128084409908 C 0.0 **** -0.24
7272 H 16.10204415996151 115.28350802461927 68.77491547125564 H 0.0 **** 0.06
7273 H 16.946269334485123 115.66070312494776 70.29593686092932 H 0.0 **** 0.06
7274 H 16.660438623828213 116.94337441856064 69.09477884362241 H 0.0 **** 0.06
7275 H 17.8428715226853 115.65528124301 68.75844883268951 H 0.0 **** 0.06
7276 C 82.53762625438264 41.112926113627665 120.18784259878558 C 0.0 **** -0.24
7277 H 83.17385682970396 41.60495848269554 119.45272975986796 H 0.0 **** 0.06
7278 H 82.77225288421818 40.04911341060267 120.21785894911395 H 0.0 **** 0.06
7279 H 81.49152401685774 41.24723665906558 119.91154755926415 H 0.0 **** 0.06
7280 H 82.71211137344892 41.55196099851804 121.17063886296904 H 0.0 **** 0.06
7281 C 17.76996291066135 115.60442776057313 14.34722675348658 C 0.0 **** -0.24
7282 H 17.70814282051296 114.51776981013711 14.280107734141168 H 0.0 **** 0.06
7283 H 17.88856122018015 115.89762595716387 15.389958427538659 H 0.0 **** 0.06
7284 H 16.85636884124625 116.04454192314677 13.946951153850335 H 0.0 **** 0.06
7285 H 18.62531479240033 115.95545386611983 13.770024920934006 H 0.0 **** 0.06
7286 C 93.52284665276272 15.844688142202301 17.37717874116487 C 0.0 **** -0.24
7287 H 93.63496730014361 16.8112975027553 16.88677034520424 H 0.0 **** 0.06
7288 H 92.84072677033402 15.942414116828633 18.221917900192068 H 0.0 **** 0.06
7289 H 94.49488520653713 15.50257013846695 17.733488287475268 H 0.0 **** 0.06
7290 H 93.1216984980943 15.121077262763887 16.667052258214028 H 0.0 **** 0.06
7291 C 44.027633563371666 45.221837730611604 56.37603851479821 C 0.0 **** -0.24
7292 H 44.023356467363875 46.28743684080832 56.60655836840351 H 0.0 **** 0.06
7293 H 43.05691595042337 44.792952292378324 56.62529288369831 H 0.0 **** 0.06
7294 H 44.8048898516636 44.72809390915407 56.958350088339785 H 0.0 **** 0.06
7295 H 44.22465422081974 45.081858968362624 55.31321871355357 H 0.0 **** 0.06
7296 C 74.21478371215727 37.08720493257795 85.75537362175686 C 0.0 **** -0.24
7297 H 74.76902926629049 36.1611156941853 85.91249394529112 H 0.0 **** 0.06
7298 H 74.91391437259927 37.91905737977504 85.67363062083021 H 0.0 **** 0.06
7299 H 73.54419568737916 37.25606192977472 86.59771566898712 H 0.0 **** 0.06
7300 H 73.63217210760428 37.00911931055529 84.83667423505196 H 0.0 **** 0.06
7301 C 112.02728441351012 19.260946291346954 40.01972510039971 C 0.0 **** -0.24
7302 H 111.07138434569976 18.941450660711553 39.6048061629223 H 0.0 **** 0.06
7303 H 112.11410500029093 18.906726624611792 41.04701461916741 H 0.0 **** 0.06
7304 H 112.0841165010828 20.34964103247711 40.00445952132284 H 0.0 **** 0.06
7305 H 112.83942668053086 18.846705208410015 39.42195389447048 H 0.0 **** 0.06
7306 C 39.01472352493626 56.60331037795034 99.85336283115356 C 0.0 **** -0.24
7307 H 37.98541362489359 56.77021611193418 100.1688761700151 H 0.0 **** 0.06
7308 H 39.565401257148544 57.54380387095585 99.9002270812914 H 0.0 **** 0.06
7309 H 39.02529811877733 56.225909644690354 98.83095538784494 H 0.0 **** 0.06
7310 H 39.48378880408426 55.874222421605616 100.51486090705225 H 0.0 **** 0.06
7311 C 67.86992475723287 97.2634432039622 34.91480696738125 C 0.0 **** -0.24
7312 H 67.08487970706412 97.55246799641401 35.61466992054457 H 0.0 **** 0.06
7313 H 67.42738090264166 96.73489098864482 34.07079713825644 H 0.0 **** 0.06
7314 H 68.58247356696498 96.61092224998998 35.41993542506512 H 0.0 **** 0.06
7315 H 68.38406698187143 98.1557879620951 34.557961445235065 H 0.0 **** 0.06
7316 C 110.2485866381216 26.06776860568786 10.329551643183322 C 0.0 **** -0.24
7317 H 111.30967951252484 25.822718094300257 10.275631972480596 H 0.0 **** 0.06
7318 H 110.06855554651526 27.014538950828552 9.818972633430633 H 0.0 **** 0.06
7319 H 109.94916157730347 26.154273518320537 11.374256236291501 H 0.0 **** 0.06
7320 H 109.6691056096231 25.279812583009004 9.84881558762521 H 0.0 **** 0.06
7321 C 30.876861849597248 40.68483757565184 83.2394061744325 C 0.0 **** -0.24
7322 H 30.155698326857276 41.12463262859404 82.55016192226893 H 0.0 **** 0.06
7323 H 30.36937573475865 40.39398971015237 84.1596591513196 H 0.0 **** 0.06
7324 H 31.653012929260598 41.4163157984691 83.46771807381839 H 0.0 **** 0.06
7325 H 31.329837551149495 39.806812500264186 82.77998038176639 H 0.0 **** 0.06
7326 C 90.2528295683249 10.568962885670015 79.52829168062448 C 0.0 **** -0.24
7327 H 89.75865126796415 10.428979744189231 80.48882724161359 H 0.0 **** 0.06
7328 H 90.36782457088694 9.6038237306724 79.03462103320157 H 0.0 **** 0.06
7329 H 91.23446343391578 11.016578699999815 79.6862543697527 H 0.0 **** 0.06
7330 H 89.65055143863972 11.227506397768927 78.90251806244095 H 0.0 **** 0.06
7331 C 81.67033001388052 82.82549751161753 85.40448390411973 C 0.0 **** -0.24
7332 H 82.12517847608376 83.785081171835 85.15526653127716 H 0.0 **** 0.06
7333 H 82.39139029926298 82.02661132445454 85.23399048918685 H 0.0 **** 0.06
7334 H 80.79458219012017 82.6652542197221 84.77595073759909 H 0.0 **** 0.06
7335 H 81.37066698704052 82.82781721265573 86.45296894231666 H 0.0 **** 0.06
7336 C 77.83057946828524 87.52282644003589 10.795004201717433 C 0.0 **** -0.24
7337 H 77.81249941095575 86.45846809256835 10.55984984812298 H 0.0 **** 0.06
7338 H 78.86350798666706 87.87061073566298 10.820002441645826 H 0.0 **** 0.06
7339 H 77.36605403036344 87.68789561605877 11.766510426298112 H 0.0 **** 0.06
7340 H 77.28005018236456 88.07223612241955 10.030560807852368 H 0.0 **** 0.06
7341 C 3.06850077659729 45.512345333564724 91.05150185768093 C 0.0 **** -0.24
7342 H 3.833612755607689 44.99764191455455 91.63240043750756 H 0.0 **** 0.06
7343 H 2.1237283907255318 45.49306948872095 91.5965613210125 H 0.0 **** 0.06
7344 H 2.9437439625951924 45.01252947533942 90.0909915941098 H 0.0 **** 0.06
7345 H 3.3723292309076243 46.546143312176355 90.88733994632605 H 0.0 **** 0.06
7346 C 25.405831809629028 39.54500033085691 4.638134543354397 C 0.0 **** -0.24
7347 H 25.095482883406703 38.96685769942283 3.7680415917822927 H 0.0 **** 0.06
7348 H 24.75376295502309 39.31244438916815 5.480987531491024 H 0.0 **** 0.06
7349 H 25.33924838408283 40.60937323151205 4.409411587926144 H 0.0 **** 0.06
7350 H 26.43538445745967 39.292627755037984 4.894135752201237 H 0.0 **** 0.06
7351 C 104.74875873736798 112.45137428757077 22.31565722374441 C 0.0 **** -0.24
7352 H 105.31337113821164 112.01729278375186 21.49080985283686 H 0.0 **** 0.06
7353 H 103.69957140612661 112.16874415763895 22.22651513742069 H 0.0 **** 0.06
7354 H 104.83764783224149 113.53780967143982 22.28412822486564 H 0.0 **** 0.06
7355 H 105.1458326730968 112.08146855689544 23.260975249758104 H 0.0 **** 0.06
7356 C 56.68457628546389 20.467641397370528 15.943446764384785 C 0.0 **** -0.24
7357 H 55.86359930057162 20.381309266333233 15.232557454314275 H 0.0 **** 0.06
7358 H 56.28336795618628 20.626345720245354 16.944119493137844 H 0.0 **** 0.06
7359 H 57.31816848803757 21.310425572558017 15.66726045320149 H 0.0 **** 0.06
7360 H 57.27499819309074 19.55087876628619 15.929574420936927 H 0.0 **** 0.06
7361 C 89.46904707912591 31.28695021883209 47.37156556755045 C 0.0 **** -0.24
7362 H 88.79607233822853 30.679437023312005 47.97687363715315 H 0.0 **** 0.06
7363 H 89.50762842757098 32.29864211462754 47.775965297352 H 0.0 **** 0.06
7364 H 89.10549299786686 31.317782873021173 46.34459678077755 H 0.0 **** 0.06
7365 H 90.46750592458483 30.85056354140218 47.390185675342934 H 0.0 **** 0.06
7366 C 74.14950561000117 14.061679028510994 32.38579750541561 C 0.0 **** -0.24
7367 H 73.5273088958458 13.847665594634819 31.51657161453187 H 0.0 **** 0.06
7368 H 73.81119429826259 13.46312871031607 33.23098981751508 H 0.0 **** 0.06
7369 H 74.0719190133405 15.120272672708875 32.635106518812506 H 0.0 **** 0.06
7370 H 75.18726259369961 13.817084542293003 32.15856606879464 H 0.0 **** 0.06
7371 C 61.89458897559168 99.0937117650241 92.77686115709406 C 0.0 **** -0.24
7372 H 62.23658137992144 98.74741211334941 93.75220257407972 H 0.0 **** 0.06
7373 H 60.968456088637744 98.58192782334797 92.51457844608072 H 0.0 **** 0.06
7374 H 62.655116220606935 98.8759181418977 92.02730371934501 H 0.0 **** 0.06
7375 H 61.71868645661143 100.16822107583636 92.81533338231782 H 0.0 **** 0.06
7376 C 27.35844374940453 43.36611828866632 18.296813538372618 C 0.0 **** -0.24
7377 H 27.088263971264098 43.23873593862686 17.248189299504304 H 0.0 **** 0.06
7378 H 26.650207972224337 44.042913332255814 18.774761946672243 H 0.0 **** 0.06
7379 H 28.363700505388806 43.78277499780767 18.364164875047692 H 0.0 **** 0.06
7380 H 27.332829926568536 42.398962787033 18.79783273878016 H 0.0 **** 0.06
7381 C 52.77561209156005 29.81685278604141 86.05228088980124 C 0.0 **** -0.24
7382 H 52.063188462046014 29.054631385501636 86.36565313084907 H 0.0 **** 0.06
7383 H 53.43956561383203 30.05784695279914 86.88222042931378 H 0.0 **** 0.06
7384 H 52.23565100240506 30.713852427888526 85.74623368744764 H 0.0 **** 0.06
7385 H 53.3622932075059 29.441892159844826 85.21350682075729 H 0.0 **** 0.06
7386 C 105.2808381729703 78.088516845323 101.11275160482387 C 0.0 **** -0.24
7387 H 105.5925274025191 77.42844587363149 101.92223123122716 H 0.0 **** 0.06
7388 H 105.19927004184387 79.10962238558207 101.48728107912675 H 0.0 **** 0.06
7389 H 104.31405150189278 77.76220963017542 100.72947329803176 H 0.0 **** 0.06
7390 H 106.0196673808853 78.05434545730947 100.31192149705043 H 0.0 **** 0.06
7391 C 7.571028320088288 75.1246083625137 59.12469401002074 C 0.0 **** -0.24
7392 H 8.320702844239804 75.07592558030399 58.33425534485789 H 0.0 **** 0.06
7393 H 6.6905019538653505 75.6520299383636 58.75739856254065 H 0.0 **** 0.06
7394 H 7.983293118363264 75.65648604951849 59.982460889835444 H 0.0 **** 0.06
7395 H 7.292536410825704 74.11383951023231 59.42309763166249 H 0.0 **** 0.06
7396 C 62.57914779502778 71.96065391933357 113.99183165323133 C 0.0 **** -0.24
7397 H 62.09491940794558 71.48760470861725 113.13803987943362 H 0.0 **** 0.06
7398 H 63.61545775960815 72.18741409703773 113.74208060170326 H 0.0 **** 0.06
7399 H 62.551001247727186 71.28382744948613 114.84585087906652 H 0.0 **** 0.06
7400 H 62.054494418260106 72.88335297925673 114.24191257592108 H 0.0 **** 0.06
7401 C 58.20017460949879 24.040031227537597 13.508328550404286 C 0.0 **** -0.24
7402 H 57.98285052114937 23.941667601828136 12.44498761784055 H 0.0 **** 0.06
7403 H 57.611227609069886 24.858646141055573 13.924732572971507 H 0.0 **** 0.06
7404 H 59.2609347865241 24.24867020426145 13.644091953710333 H 0.0 **** 0.06
7405 H 57.94344251666098 23.1108827635704 14.018552005815092 H 0.0 **** 0.06
7406 C 29.237279687842005 48.15794109170628 77.70084278943003 C 0.0 **** -0.24
7407 H 28.197787966043336 48.46273947383207 77.57437496708187 H 0.0 **** 0.06
7408 H 29.508488025087246 48.224494260494225 78.75480620564207 H 0.0 **** 0.06
7409 H 29.88166939711118 48.81447822446597 77.11633614681782 H 0.0 **** 0.06
7410 H 29.3582271237062 47.130585639922685 77.35804314743311 H 0.0 **** 0.06
7411 C 9.925237505267631 64.82390682315162 73.24631741476526 C 0.0 **** -0.24
7412 H 9.16881374203848 64.59467278218648 73.99693780950179 H 0.0 **** 0.06
7413 H 10.133686708516223 65.89397495777331 73.25401620081459 H 0.0 **** 0.06
7414 H 9.560201786435698 64.53117645835982 72.26249328564904 H 0.0 **** 0.06
7415 H 10.839228181027693 64.2741776842355 73.47245251120546 H 0.0 **** 0.06
7416 C 52.62553493022889 53.55458180525861 84.22825710677142 C 0.0 **** -0.24
7417 H 52.90954586560826 52.68795427874565 84.8268769832082 H 0.0 **** 0.06
7418 H 53.16507414385233 53.53483184484887 83.28203068845636 H 0.0 **** 0.06
7419 H 52.87557325303363 54.46692188644482 84.77046332704035 H 0.0 **** 0.06
7420 H 51.55294216238933 53.527189669981965 84.0364797675503 H 0.0 **** 0.06
7421 C 104.50295796394926 29.359788944064547 76.54470725468718 C 0.0 **** -0.24
7422 H 104.40648555688321 29.580667735758453 75.48165139180338 H 0.0 **** 0.06
7423 H 105.55168142202575 29.18553295029932 76.78590033207976 H 0.0 **** 0.06
7424 H 103.92153480249655 28.46852437942124 76.78440667094048 H 0.0 **** 0.06
7425 H 104.13064397680154 30.20338977131263 77.12602908864355 H 0.0 **** 0.06
7426 C 66.60110294609296 77.30405423230664 42.56062329556431 C 0.0 **** -0.24
7427 H 66.58597381204092 77.19133220574628 43.645342643502005 H 0.0 **** 0.06
7428 H 65.90426520958991 78.08954851240932 42.26824164037697 H 0.0 **** 0.06
7429 H 66.30536090178677 76.36359917730499 42.09454484714735 H 0.0 **** 0.06
7430 H 67.60717115763711 77.56910752509532 42.23646037087522 H 0.0 **** 0.06
7431 C 4.313999559854926 109.01216357592565 47.88458292088629 C 0.0 **** -0.24
7432 H 5.3842175126704035 108.81994341906659 47.801203434683856 H 0.0 **** 0.06
7433 H 4.154511376593625 110.03074163985698 48.237927453623314 H 0.0 **** 0.06
7434 H 3.8730144779548237 108.30848136408517 48.59142073511185 H 0.0 **** 0.06
7435 H 3.8460860878427248 108.88711168435981 46.907809063878375 H 0.0 **** 0.06
7436 C 30.151906605637407 15.762808260540726 5.147907809642774 C 0.0 **** -0.24
7437 H 29.552702113844532 15.257179229647456 5.905479204381066 H 0.0 **** 0.06
7438 H 30.01752561333302 15.264491407164847 4.188112955093416 H 0.0 **** 0.06
7439 H 31.20364093897055 15.726281263040477 5.433202118218674 H 0.0 **** 0.06
7440 H 29.83326468944182 16.801716923250698 5.067141423723598 H 0.0 **** 0.06
7441 C 83.92627998201013 47.79359490610244 90.24262158933618 C 0.0 **** -0.24
7442 H 83.86140224057723 48.36596864275971 89.31712100674102 H 0.0 **** 0.06
7443 H 84.3545283340344 48.4177453306646 91.0263375288122 H 0.0 **** 0.06
7444 H 84.5587817405702 46.91992620662731 90.08629295812955 H 0.0 **** 0.06
7445 H 82.92763613786096 47.47018088969142 90.53973114857078 H 0.0 **** 0.06
7446 C 42.02357268885639 120.13980506485268 19.856137984538748 C 0.0 **** -0.24
7447 H 42.98521487298563 119.63134916491589 19.80135719016944 H 0.0 **** 0.06
7448 H 41.6163362246913 120.03959646654272 20.86287623289877 H 0.0 **** 0.06
7449 H 41.334619163204785 119.69240081321016 19.139090808055442 H 0.0 **** 0.06
7450 H 42.156477126254075 121.19628705157652 19.621586514738254 H 0.0 **** 0.06
7451 C 78.61138463696881 91.09318397873616 8.527777884297493 C 0.0 **** -0.24
7452 H 78.47294556095534 90.18650368105594 7.938824924355998 H 0.0 **** 0.06
7453 H 78.44217097190796 91.9660311379669 7.897577379685913 H 0.0 **** 0.06
7454 H 79.62798565535803 91.11913661927835 8.91999587535095 H 0.0 **** 0.06
7455 H 77.90292776961175 91.09886351039418 9.356420609718697 H 0.0 **** 0.06
7456 C 109.04489426613651 0.5702790466235257 69.95688766101074 C 0.0 **** -0.24
7457 H 108.4978017046391 1.4909864164087594 70.15827228743066 H 0.0 **** 0.06
7458 H 108.35293066941242 -0.19294912421275967 69.59829824373412 H 0.0 **** 0.06
7459 H 109.52277273192965 0.22406475837588857 70.8743101740917 H 0.0 **** 0.06
7460 H 109.80502516328539 0.7578330824054262 69.19901723031802 H 0.0 **** 0.06
7461 C 65.99387307722535 81.79025933394195 76.69707955790793 C 0.0 **** -0.24
7462 H 67.05583879354978 81.88416005183745 76.92641699894557 H 0.0 **** 0.06
7463 H 65.42563436202346 81.73856758774915 77.62680099889673 H 0.0 **** 0.06
7464 H 65.82710219238945 80.88182685229484 76.11834471234926 H 0.0 **** 0.06
7465 H 65.66898795533228 82.65484747244813 76.1194083165243 H 0.0 **** 0.06
7466 C 68.95537146550313 27.57206189447197 24.20668094659345 C 0.0 **** -0.24
7467 H 68.33893229214783 26.86645540428458 24.76403575193757 H 0.0 **** 0.06
7468 H 68.66199791444996 28.59104117162559 24.462075553982316 H 0.0 **** 0.06
7469 H 68.81463453155706 27.41063913887865 23.137640735749102 H 0.0 **** 0.06
7470 H 70.0027986609534 27.419788363367218 24.463354014192305 H 0.0 **** 0.06
7471 C 74.05652082483005 60.15369355731639 119.36013277891942 C 0.0 **** -0.24
7472 H 74.01333446423362 61.02916758776749 118.7125987932954 H 0.0 **** 0.06
7473 H 73.18640824769426 59.52318488202994 119.1779185424756 H 0.0 **** 0.06
7474 H 74.06245388707038 60.47361775195145 120.40245349610436 H 0.0 **** 0.06
7475 H 74.96518816463154 59.589205740949524 119.14794095718597 H 0.0 **** 0.06
7476 C 8.724400236490965 65.37386666673581 112.19232121241961 C 0.0 **** -0.24
7477 H 7.775788952292274 65.52992231082476 111.67830621780479 H 0.0 **** 0.06
7478 H 9.242688302738003 66.3272575670639 112.29510449331875 H 0.0 **** 0.06
7479 H 9.340694385831824 64.6848842724782 111.61463538218456 H 0.0 **** 0.06
7480 H 8.536634580509002 64.95298733787166 113.18045977438797 H 0.0 **** 0.06
7481 C 78.89471210869635 121.32512493420494 45.24660473263863 C 0.0 **** -0.24
7482 H 78.37056225928194 120.6331641757358 45.90540238204676 H 0.0 **** 0.06
7483 H 79.10492035365905 120.83330629866018 44.297363984178844 H 0.0 **** 0.06
7484 H 79.83112990904704 121.63135281026027 45.71370253927245 H 0.0 **** 0.06
7485 H 78.27189178273773 122.20287673238357 45.07236700588186 H 0.0 **** 0.06
7486 C 48.30572911854878 13.199339700968721 70.9935006640701 C 0.0 **** -0.24
7487 H 48.43243169966933 13.390279867206687 69.92738599191807 H 0.0 **** 0.06
7488 H 48.655980913988834 14.06308714721996 71.5598973784746 H 0.0 **** 0.06
7489 H 48.883723941353836 12.320276485698912 71.27605844171865 H 0.0 **** 0.06
7490 H 47.251431857860446 13.026854296130864 71.20806803699259 H 0.0 **** 0.06
7491 C 47.99167138127504 121.51360002773532 42.0944850469036 C 0.0 **** -0.24
7492 H 48.65065282836778 121.97851406143167 42.82798797185297 H 0.0 **** 0.06
7493 H 48.51874528147664 121.41161317215705 41.14635274503213 H 0.0 **** 0.06
7494 H 47.107568799107725 122.13554959908186 41.95435480883606 H 0.0 **** 0.06
7495 H 47.690102554239644 120.52846988605492 42.450914557373245 H 0.0 **** 0.06
7496 C 3.6969755874989385 20.31488685212838 77.28404250440093 C 0.0 **** -0.24
7497 H 3.9650983154041004 20.02160580615987 76.26875752291221 H 0.0 **** 0.06
7498 H 3.198130266845755 21.283860071715623 77.26303345451387 H 0.0 **** 0.06
7499 H 4.598690721591845 20.38290956268628 77.89229889288711 H 0.0 **** 0.06
7500 H 3.0260760063374352 19.56904293573507 77.71140275631123 H 0.0 **** 0.06
7501 C 73.99516818482573 33.1881531863128 59.06251243599837 C 0.0 **** -0.24
7502 H 74.98091758908237 32.83147324573429 58.76558213311557 H 0.0 **** 0.06
7503 H 73.88484832893539 34.2328877526902 58.77241878348633 H 0.0 **** 0.06
7504 H 73.88588295788622 33.097634918990906 60.143224844602344 H 0.0 **** 0.06
7505 H 73.22866917888507 32.59071360725471 58.56789398907847 H 0.0 **** 0.06
7506 C 13.231163428838382 44.15631072618987 98.33300787216717 C 0.0 **** -0.24
7507 H 12.541245433281276 44.45776230711749 97.54404507153907 H 0.0 **** 0.06
7508 H 13.25918710328714 43.06780850012322 98.39511892855458 H 0.0 **** 0.06
7509 H 12.895671847501468 44.56662762003961 99.28489101258666 H 0.0 **** 0.06
7510 H 14.22812815065977 44.53323494857867 98.10578864465236 H 0.0 **** 0.06
7511 C 24.64772020734489 52.830931945409354 6.749975140525322 C 0.0 **** -0.24
7512 H 24.39770102289873 51.774939157981244 6.652037811433871 H 0.0 **** 0.06
7513 H 23.741348990782058 53.42937672680349 6.6555970945551906 H 0.0 **** 0.06
7514 H 25.352043598154864 53.11143242374148 5.966812851131891 H 0.0 **** 0.06
7515 H 25.10071529686897 53.007030683643784 7.7259412501013855 H 0.0 **** 0.06
7516 C 100.88860837989546 42.50988500651766 103.02672767182949 C 0.0 **** -0.24
7517 H 101.07278716419955 43.49348251676727 103.4610885253332 H 0.0 **** 0.06
7518 H 101.2031271729519 41.738266392415994 103.72980078440364 H 0.0 **** 0.06
7519 H 101.45571618983178 42.411377300071734 102.10087016851648 H 0.0 **** 0.06
7520 H 99.82507335575988 42.398934621096856 102.81585239722943 H 0.0 **** 0.06
7521 C 17.8148181074708 46.40305915055339 67.174391286916 C 0.0 **** -0.24
7522 H 17.641708432039376 47.46411587789916 67.3531306823244 H 0.0 **** 0.06
7523 H 17.959263734662603 45.892744745526954 68.12637173172416 H 0.0 **** 0.06
7524 H 18.705162129220724 46.27858798156717 66.55682213018557 H 0.0 **** 0.06
7525 H 16.953736912680647 45.97605091285436 66.66019261392282 H 0.0 **** 0.06
7526 C 99.71361045814604 35.06322917702548 114.54707838562365 C 0.0 **** -0.24
7527 H 100.40179315952398 34.96780757140715 115.38743632146969 H 0.0 **** 0.06
7528 H 100.04288968027632 34.4173855339933 113.73367057897923 H 0.0 **** 0.06
7529 H 99.69616856768948 36.09822640684469 114.20721873216905 H 0.0 **** 0.06
7530 H 98.7129829026346 34.76769578933897 114.86321073942455 H 0.0 **** 0.06
7531 C 105.40804075570813 73.31487183424235 117.01379072573067 C 0.0 **** -0.24
7532 H 105.41280307181512 73.20710964509601 118.09841589461553 H 0.0 **** 0.06
7533 H 105.73894119234299 74.31916498472594 116.74733181035666 H 0.0 **** 0.06
7534 H 104.39750586782068 73.15354855892582 116.63708629713085 H 0.0 **** 0.06
7535 H 106.081511468446 72.58101814429295 116.57277938114555 H 0.0 **** 0.06
7536 C 35.517039284747966 15.328694568091038 5.166133917859412 C 0.0 **** -0.24
7537 H 34.73218305860763 15.598311893206017 5.872125615093495 H 0.0 **** 0.06
7538 H 35.81342975934973 14.292460882942066 5.3319127510682165 H 0.0 **** 0.06
7539 H 36.377788700651934 15.980275767880016 5.311462603330156 H 0.0 **** 0.06
7540 H 35.1433102791479 15.440930673995695 4.148757501404319 H 0.0 **** 0.06
7541 C 59.00253858713529 14.106286317223976 110.57698595939368 C 0.0 **** -0.24
7542 H 60.00780900965566 13.972453912250472 110.97752489522713 H 0.0 **** 0.06
7543 H 59.04926508333085 14.709461588961176 109.67098304259216 H 0.0 **** 0.06
7544 H 58.381286596368795 14.609129831046516 111.31830472212901 H 0.0 **** 0.06
7545 H 58.57314211151402 13.132096803647897 110.34380883670812 H 0.0 **** 0.06
7546 C 91.35463129684231 81.7513967898193 70.383977621584 C 0.0 **** -0.24
7547 H 90.54791330194678 81.24010131516795 70.91028856166378 H 0.0 **** 0.06
7548 H 91.16820982678112 81.711039211996 69.3097739385777 H 0.0 **** 0.06
7549 H 92.30259199015856 81.261852542437 70.60733627214992 H 0.0 **** 0.06
7550 H 91.39672363522581 82.79161306110706 70.70663760296276 H 0.0 **** 0.06
7551 C 62.22339401514018 88.49415200120279 61.237737148434185 C 0.0 **** -0.24
7552 H 61.4041439279064 88.71144694143288 60.55364049112077 H 0.0 **** 0.06
7553 H 62.84641644083462 89.38140118335247 61.35223210829357 H 0.0 **** 0.06
7554 H 62.82362229414897 87.67668440393544 60.83874736368271 H 0.0 **** 0.06
7555 H 61.818380927584194 88.20634666982585 62.20843672924439 H 0.0 **** 0.06
7556 C 2.176239956844313 31.244508319545417 1.584400124172575 C 0.0 **** -0.24
7557 H 2.023536803505351 32.01195564255386 2.343276587902551 H 0.0 **** 0.06
7558 H 3.0494845985639927 31.497711907357427 0.9834285332720469 H 0.0 **** 0.06
7559 H 1.2970581157654237 31.188565898473144 0.9427897707840884 H 0.0 **** 0.06
7560 H 2.334420815300291 30.281676789953252 2.068621461556944 H 0.0 **** 0.06
7561 C 115.27057701709128 52.16527949651464 87.75164163060518 C 0.0 **** -0.24
7562 H 116.29927608760465 52.16319545554819 87.39343090866507 H 0.0 **** 0.06
7563 H 114.81602942861392 53.13570276764301 87.54534948579897 H 0.0 **** 0.06
7564 H 115.25891961451259 51.97891649354165 88.82560861084926 H 0.0 **** 0.06
7565 H 114.70667523732087 51.38467943953697 87.24111694476605 H 0.0 **** 0.06
7566 C 108.79537037097842 102.84318559885008 117.56736717359894 C 0.0 **** -0.24
7567 H 109.22714353828997 102.90526135084434 116.56796249222185 H 0.0 **** 0.06
7568 H 108.3470126354029 103.80152462828033 117.82976722180769 H 0.0 **** 0.06
7569 H 109.5773457711665 102.59896577703643 118.28562563768651 H 0.0 **** 0.06
7570 H 108.03066155885162 102.06721356184329 117.58424642619514 H 0.0 **** 0.06
7571 C 61.45546592315657 57.026133338679195 37.667482318191645 C 0.0 **** -0.24
7572 H 60.54154479872153 56.467151851570485 37.868238388192296 H 0.0 **** 0.06
7573 H 61.827196168696304 56.77131510860902 36.67493638361714 H 0.0 **** 0.06
7574 H 62.206863301547116 56.772170447187655 38.414420667671976 H 0.0 **** 0.06
7575 H 61.243664902853084 58.09489827151693 37.71284788905902 H 0.0 **** 0.06
7576 C 55.098309375783685 36.559647839139615 79.94611773360367 C 0.0 **** -0.24
7577 H 56.07747188934252 36.44158510876426 79.48295356865665 H 0.0 **** 0.06
7578 H 55.09788569695101 36.07425537783729 80.92301957646487 H 0.0 **** 0.06
7579 H 54.339046841126674 36.10172736919142 79.31211349273295 H 0.0 **** 0.06
7580 H 54.87955911655155 37.62032876341837 80.0673794428042 H 0.0 **** 0.06
7581 C 52.79796810234177 11.422568676419203 51.62008653527454 C 0.0 **** -0.24
7582 H 53.031821249274344 11.241968657092883 52.66924022450138 H 0.0 **** 0.06
7583 H 53.691254483663386 11.263839241385227 51.01596110320594 H 0.0 **** 0.06
7584 H 52.45278975728894 12.449503148453559 51.49719361149471 H 0.0 **** 0.06
7585 H 52.01453150564538 10.735544253171142 51.299818392059365 H 0.0 **** 0.06
7586 C 93.48793323572062 121.82971867929577 98.13199219705521 C 0.0 **** -0.24
7587 H 94.46099575483333 122.01359020953164 97.67676399968533 H 0.0 **** 0.06
7588 H 93.45099186087276 122.30447387090935 99.11340702974624 H 0.0 **** 0.06
7589 H 93.33500059227387 120.75604339900762 98.24096983185066 H 0.0 **** 0.06
7590 H 92.70523291297943 122.24615504569388 97.49774216882173 H 0.0 **** 0.06
7591 C 84.28046747036885 119.88677529243196 63.19770892873561 C 0.0 **** -0.24
7592 H 83.19639254865578 119.99708180700594 63.1541976477435 H 0.0 **** 0.06
7593 H 84.53498936632533 119.07469934166724 63.87918557160438 H 0.0 **** 0.06
7594 H 84.72590929852973 120.81540049745618 63.55460798664569 H 0.0 **** 0.06
7595 H 84.66251379553361 119.65909609137219 62.20308645837389 H 0.0 **** 0.06
7596 C 32.98786037062257 37.23289713485724 41.853224816864554 C 0.0 **** -0.24
7597 H 33.64635108456098 36.434168246188534 41.512047056193865 H 0.0 **** 0.06
7598 H 33.57045522516537 37.973972802698256 42.40090925615152 H 0.0 **** 0.06
7599 H 32.22168225248463 36.818083780504494 42.506119869248096 H 0.0 **** 0.06
7600 H 32.51555234158442 37.705993740408076 40.99246419971303 H 0.0 **** 0.06
7601 C 51.86125980412072 96.96596429286313 110.5241301414695 C 0.0 **** -0.24
7602 H 51.03601660834224 96.4697094403353 110.01248966984471 H 0.0 **** 0.06
7603 H 51.54130742343099 97.9525365861187 110.85891469185054 H 0.0 **** 0.06
7604 H 52.70221455372308 97.06947105603439 109.83880134452127 H 0.0 **** 0.06
7605 H 52.164840737832805 96.3701209722883 111.38444719958183 H 0.0 **** 0.06
7606 C 4.710771015555153 84.90713756109838 73.0344040963781 C 0.0 **** -0.24
7607 H 5.1419193099852265 84.00587630961576 72.60092593031897 H 0.0 **** 0.06
7608 H 4.9898174064428105 84.97332038080734 74.08724464505426 H 0.0 **** 0.06
7609 H 3.6246144457761176 84.86881147674762 72.94862430884751 H 0.0 **** 0.06
7610 H 5.085626562553102 85.78181137134956 72.503094243058 H 0.0 **** 0.06
7611 C 13.290571832682417 16.05527262351694 121.25690454207422 C 0.0 **** -0.24
7612 H 12.21828416932965 15.945611415316662 121.4180805295977 H 0.0 **** 0.06
7613 H 13.572781013257327 17.10076146003479 121.38975906678807 H 0.0 **** 0.06
7614 H 13.539143052480938 15.737560946857599 120.24408136272322 H 0.0 **** 0.06
7615 H 13.830823219429874 15.438908965666798 121.97453420648982 H 0.0 **** 0.06
7616 C 99.95295850889039 71.98428707565864 55.51591889053461 C 0.0 **** -0.24
7617 H 99.01015837948745 71.5315942118298 55.82245632307672 H 0.0 **** 0.06
7618 H 99.75392395161956 72.81160602634034 54.83501529556787 H 0.0 **** 0.06
7619 H 100.56722461940569 71.23775168797414 55.01209430758422 H 0.0 **** 0.06
7620 H 100.48140935462266 72.35521986633873 56.394627457932955 H 0.0 **** 0.06
7621 C 67.43674217426147 109.51621407528816 47.592012333394386 C 0.0 **** -0.24
7622 H 66.80774727506991 110.28003753105156 48.05033463373011 H 0.0 **** 0.06
7623 H 67.28032169744921 108.56385920828515 48.10125502565389 H 0.0 **** 0.06
7624 H 68.48265373163306 109.80712324821337 47.67798835702116 H 0.0 **** 0.06
7625 H 67.17311348703652 109.41206109989645 46.53948955222695 H 0.0 **** 0.06
7626 C 17.776751848960533 92.5109201917922 6.639030465979715 C 0.0 **** -0.24
7627 H 16.96877434863303 93.08648733572153 7.0909042997440395 H 0.0 **** 0.06
7628 H 17.478865181982 92.18942937102855 5.640623054207907 H 0.0 **** 0.06
7629 H 17.988662918563307 91.63724010884249 7.2548038831275505 H 0.0 **** 0.06
7630 H 18.670300018546044 93.13176976749497 6.570323625189303 H 0.0 **** 0.06
7631 C 82.45969186924191 65.1888921928392 79.54584169790118 C 0.0 **** -0.24
7632 H 81.68654213373279 65.44882424548425 78.8234125352837 H 0.0 **** 0.06
7633 H 82.14702557368068 64.31312884690652 80.11502138060874 H 0.0 **** 0.06
7634 H 82.61897979341057 66.02654335439345 80.22498235114014 H 0.0 **** 0.06
7635 H 83.38902029777174 64.96728851136197 79.01889602800375 H 0.0 **** 0.06
7636 C 114.71280574256662 85.29957367314856 33.16045186761244 C 0.0 **** -0.24
7637 H 115.79147179057517 85.42971459722881 33.07782027329304 H 0.0 **** 0.06
7638 H 114.20765884385474 86.10154884332607 32.62312747028355 H 0.0 **** 0.06
7639 H 114.42342385381271 85.3278374775889 34.21125891184698 H 0.0 **** 0.06
7640 H 114.42938899164685 84.33857164937902 32.73162420440826 H 0.0 **** 0.06
7641 C 42.824532978015895 25.291918709184777 51.52994338564798 C 0.0 **** -0.24
7642 H 43.64847996791568 25.095763711951022 52.21548161282169 H 0.0 **** 0.06
7643 H 42.53806803175705 26.34192634825599 51.59683116061842 H 0.0 **** 0.06
7644 H 41.97318735715575 24.665251756278458 51.79573709435169 H 0.0 **** 0.06
7645 H 43.137982807066436 25.06414237443353 50.51050709710245 H 0.0 **** 0.06
7646 C 101.88020227813237 117.58183718361539 106.49454903289143 C 0.0 **** -0.24
7647 H 101.06589713878853 118.28846601037463 106.65195907021123 H 0.0 **** 0.06
7648 H 102.71120263159946 117.83203013957151 107.15526464156653 H 0.0 **** 0.06
7649 H 102.21212365432618 117.63496432823914 105.45742374410827 H 0.0 **** 0.06
7650 H 101.53268240011357 116.57276608170875 106.713712248202 H 0.0 **** 0.06
7651 C 70.38728656940211 119.15128099403779 64.57691556669019 C 0.0 **** -0.24
7652 H 69.36521478055508 119.52931462734807 64.53887599657523 H 0.0 **** 0.06
7653 H 71.04825605792516 119.83848959668444 64.04990443530167 H 0.0 **** 0.06
7654 H 70.4287851942197 118.17072945937531 64.10359154123131 H 0.0 **** 0.06
7655 H 70.7035399275272 119.06584409301433 65.61639450514605 H 0.0 **** 0.06
7656 C 101.50201994909844 11.884130965313659 50.363380262753026 C 0.0 **** -0.24
7657 H 101.14165239925177 11.48431653785633 49.415193140304154 H 0.0 **** 0.06
7658 H 102.34525323573692 12.550830035670543 50.17892109689183 H 0.0 **** 0.06
7659 H 101.82163946547703 11.063566784087413 51.00581774939354 H 0.0 **** 0.06
7660 H 100.7005333243109 12.437589908900748 50.851870256124926 H 0.0 **** 0.06
7661 C 88.96764719232601 38.858724337140075 93.32529617774858 C 0.0 **** -0.24
7662 H 89.61680645365527 39.478948402486765 92.70733057693764 H 0.0 **** 0.06
7663 H 87.98858086342179 38.77451642633184 92.85161971871696 H 0.0 **** 0.06
7664 H 88.85823349869372 39.3155400260124 94.30912147975422 H 0.0 **** 0.06
7665 H 89.40653754286993 37.866823944391115 93.4311261229023 H 0.0 **** 0.06
7666 C 15.252254129714203 94.43199415952321 83.53887765398466 C 0.0 **** -0.24
7667 H 14.692694247574394 93.59612886666238 83.95895751252797 H 0.0 **** 0.06
7668 H 15.472567191226204 95.15352797091782 84.32614081789197 H 0.0 **** 0.06
7669 H 14.656973392423225 94.91268695611592 82.76199255513723 H 0.0 **** 0.06
7670 H 16.184651060363507 94.06664879442215 83.10907441118931 H 0.0 **** 0.06
7671 C 10.154901507515234 79.73481312727804 25.124043135183683 C 0.0 **** -0.24
7672 H 9.46964412380754 79.34501680243991 24.370029620033165 H 0.0 **** 0.06
7673 H 9.632564871256449 79.82520991674039 26.076089325685984 H 0.0 **** 0.06
7674 H 10.517428223253773 80.71431288737983 24.81267404165078 H 0.0 **** 0.06
7675 H 10.998713862437512 79.05297156428222 25.233719793099908 H 0.0 **** 0.06
7676 C 30.681836297088182 77.23618023177607 88.18859789827835 C 0.0 **** -0.24
7677 H 31.32433706777158 76.66314317999496 88.85629046546413 H 0.0 **** 0.06
7678 H 29.938608635980415 76.57467933586796 87.74356943506297 H 0.0 **** 0.06
7679 H 31.28597920597241 77.68660607287978 87.40130950527393 H 0.0 **** 0.06
7680 H 30.17815438654796 78.02064514865299 88.75411933945239 H 0.0 **** 0.06
7681 C 8.141552390980678 17.55578683510953 32.07820939298642 C 0.0 **** -0.24
7682 H 7.512280324571151 16.870847789183415 32.646324070224466 H 0.0 **** 0.06
7683 H 9.17933011292195 17.439626044034696 32.39111707174666 H 0.0 **** 0.06
7684 H 7.818344317326151 18.58017228351156 32.25949106565764 H 0.0 **** 0.06
7685 H 8.054972349958422 17.32993756335526 31.015020239977474 H 0.0 **** 0.06
7686 C 40.89390703117948 106.5112584156349 58.44315473118894 C 0.0 **** -0.24
7687 H 41.302126525007424 107.503220492494 58.248064380640756 H 0.0 **** 0.06
7688 H 40.2777961630764 106.19994239193127 57.598514593450574 H 0.0 **** 0.06
7689 H 40.284971248316594 106.54098625946338 59.34674346503141 H 0.0 **** 0.06
7690 H 41.71066124203668 105.80300187847337 58.57858112241439 H 0.0 **** 0.06
7691 C 64.24359248723528 77.96265240075823 25.72352266877315 C 0.0 **** -0.24
7692 H 64.29395113811569 77.81750607366524 26.802926074936543 H 0.0 **** 0.06
7693 H 64.47309249627386 77.02335804377051 25.21940855466297 H 0.0 **** 0.06
7694 H 64.96694009016329 78.7217652709956 25.42538169589257 H 0.0 **** 0.06
7695 H 63.241494289499485 78.28770235063939 25.44720807296747 H 0.0 **** 0.06
7696 C 91.45061273088584 3.2296433474570847 82.73873218948145 C 0.0 **** -0.24
7697 H 90.47609054204307 2.7432361721716205 82.77965509851671 H 0.0 **** 0.06
7698 H 91.50195939505414 3.866485961230808 81.85483218869493 H 0.0 **** 0.06
7699 H 92.23250350240863 2.4717728656245725 82.68595619336466 H 0.0 **** 0.06
7700 H 91.59243619564356 3.8356498500745317 83.6328514660047 H 0.0 **** 0.06
7701 C 98.6498050024382 117.13011270796126 13.749824094701978 C 0.0 **** -0.24
7702 H 97.77228309233251 117.77418294934 13.702750810748 H 0.0 **** 0.06
7703 H 98.33976893453425 116.08722639883584 13.681238887516315 H 0.0 **** 0.06
7704 H 99.16983527031172 117.29215938950529 14.694278198931727 H 0.0 **** 0.06
7705 H 99.31908144342239 117.36578411639152 12.92188677267211 H 0.0 **** 0.06
7706 C 39.03644854542398 116.09659935165817 119.42259579299136 C 0.0 **** -0.24
7707 H 39.496848576452635 115.14513022717443 119.159557100424 H 0.0 **** 0.06
7708 H 39.27913501677605 116.83976703622469 118.66280554617319 H 0.0 **** 0.06
7709 H 39.41370290935593 116.42764265809208 120.39037915007677 H 0.0 **** 0.06
7710 H 37.954019270886675 115.97334142920784 119.47825171591231 H 0.0 **** 0.06
7711 C 99.12310368184612 61.476138214668765 11.331537316742214 C 0.0 **** -0.24
7712 H 98.1245234405396 61.14768648383995 11.618511273834542 H 0.0 **** 0.06
7713 H 99.86571531729382 60.81874707688894 11.783574895699275 H 0.0 **** 0.06
7714 H 99.28267890851265 62.49790038164389 11.678583495981002 H 0.0 **** 0.06
7715 H 99.21918213207653 61.44176366070559 10.246197063274991 H 0.0 **** 0.06
7716 C 12.81033229049342 37.480652914423786 45.166431147364335 C 0.0 **** -0.24
7717 H 12.132730231301707 36.72293331584984 44.77380339545175 H 0.0 **** 0.06
7718 H 13.524626247932758 37.01328366049694 45.84465329505787 H 0.0 **** 0.06
7719 H 12.237141230950328 38.235300187113694 45.70647810887232 H 0.0 **** 0.06
7720 H 13.345199235666826 37.95193397021296 44.34241197520316 H 0.0 **** 0.06
7721 C 7.689277281739265 86.8010857890904 85.77737094450555 C 0.0 **** -0.24
7722 H 8.070111612246166 86.52844479558195 86.7611306598505 H 0.0 **** 0.06
7723 H 7.800054104338926 87.87575323223587 85.62975129877913 H 0.0 **** 0.06
7724 H 6.635455692651135 86.53099216746062 85.70883170159976 H 0.0 **** 0.06
7725 H 8.25148771772102 86.26915296108302 85.00977011779287 H 0.0 **** 0.06
7726 C 77.17211975368579 69.79055874261121 89.65294888261056 C 0.0 **** -0.24
7727 H 77.75136000869688 70.44782324985022 89.00485614825786 H 0.0 **** 0.06
7728 H 77.7501105874004 68.89155054311698 89.86865938873908 H 0.0 **** 0.06
7729 H 76.24329007532614 69.5148143846377 89.1545518980104 H 0.0 **** 0.06
7730 H 76.9439479915649 70.30910644845324 90.58463611690522 H 0.0 **** 0.06
7731 C 55.53140618475865 58.267770837551865 66.9383465543992 C 0.0 **** -0.24
7732 H 55.042325266555736 57.50835482768858 66.32982440746062 H 0.0 **** 0.06
7733 H 56.50942075569 57.90432629837963 67.25461657280314 H 0.0 **** 0.06
7734 H 54.92103737235723 58.47914351674524 67.81617490678042 H 0.0 **** 0.06
7735 H 55.65454115730748 59.179344242820946 66.35309202429801 H 0.0 **** 0.06
7736 C 84.53460574037032 85.73482112738526 95.87621047304364 C 0.0 **** -0.24
7737 H 83.63318233041903 86.34100821857862 95.78690106673753 H 0.0 **** 0.06
7738 H 85.40974478422359 86.35585730327813 95.68646901508794 H 0.0 **** 0.06
7739 H 84.49945940082424 84.92290818196744 95.14937330562685 H 0.0 **** 0.06
7740 H 84.59375784550227 85.3202578237636 96.88259878236457 H 0.0 **** 0.06
7741 C 76.16409610850502 29.3016986517936 39.512222392116485 C 0.0 **** -0.24
7742 H 76.42103815769627 28.24236786222602 39.527395033596505 H 0.0 **** 0.06
7743 H 76.57201426385487 29.787268290741565 40.40010310890287 H 0.0 **** 0.06
7744 H 75.07945657205386 29.412655458578428 39.50374699243534 H 0.0 **** 0.06
7745 H 76.5845783164186 29.765232508606715 38.61936896210102 H 0.0 **** 0.06
7746 C 64.35159920497432 28.777122079620312 16.96588247654961 C 0.0 **** -0.24
7747 H 64.04751936423298 28.056816101925648 17.726073201890927 H 0.0 **** 0.06
7748 H 64.33413518512816 29.781520243476933 17.388715132285995 H 0.0 **** 0.06
7749 H 63.66536161808972 28.72544875542914 16.121569809703487 H 0.0 **** 0.06
7750 H 65.36117038002271 28.54248012037013 16.62809654048226 H 0.0 **** 0.06
7751 C 66.17328291585264 115.39229891047441 93.68362141174498 C 0.0 **** -0.24
7752 H 66.95834375394105 114.66274463307849 93.48442007081121 H 0.0 **** 0.06
7753 H 66.33141463468493 115.83570106311322 94.66719452602013 H 0.0 **** 0.06
7754 H 65.20305130068735 114.89705653046337 93.65852799988102 H 0.0 **** 0.06
7755 H 66.20311674749561 116.17330863977858 92.92454709632909 H 0.0 **** 0.06
7756 C 58.25553400423376 88.78686851751905 106.28790939559752 C 0.0 **** -0.24
7757 H 58.730336494909785 89.47947871469734 105.59152304454642 H 0.0 **** 0.06
7758 H 58.98485366605586 88.46152111492887 107.02949756017901 H 0.0 **** 0.06
7759 H 57.881304816761336 87.92235350009128 105.74111113711788 H 0.0 **** 0.06
7760 H 57.4265877771172 89.28815445157758 106.78859267952035 H 0.0 **** 0.06
7761 C 109.1368468802496 83.21840541111172 19.42561712292733 C 0.0 **** -0.24
7762 H 108.97686908694314 82.53804990895154 18.58949655982459 H 0.0 **** 0.06
7763 H 110.03693078816224 82.9250560781889 19.966336350819784 H 0.0 **** 0.06
7764 H 108.27959555443329 83.17719617126829 20.097620914330403 H 0.0 **** 0.06
7765 H 109.25421059363347 84.2342953168422 19.049006499451416 H 0.0 **** 0.06
7766 C 19.476319504689116 57.45510002729669 16.631043554279174 C 0.0 **** -0.24
7767 H 18.411485235584166 57.47615762972669 16.86481210166781 H 0.0 **** 0.06
7768 H 19.711790332825387 58.26354517577345 15.939562528826485 H 0.0 **** 0.06
7769 H 19.728048568254906 56.49798026488755 16.17168476303314 H 0.0 **** 0.06
7770 H 20.05141916285325 57.579966838334634 17.548226066834104 H 0.0 **** 0.06
7771 C 85.15436108373677 18.27707693944984 11.305075210579819 C 0.0 **** -0.24
7772 H 84.35338026578023 18.77868988846285 11.84897810506239 H 0.0 **** 0.06
7773 H 85.6683006306738 17.58543588950252 11.972960646403976 H 0.0 **** 0.06
7774 H 85.86110025620593 19.018422884226226 10.934258575853303 H 0.0 **** 0.06
7775 H 84.73195555567477 17.72524170571819 10.465287392861882 H 0.0 **** 0.06
7776 C 118.16784501057725 33.58984123838738 109.24608004958347 C 0.0 **** -0.24
7777 H 117.8987483430359 33.767130289275514 110.28707556947717 H 0.0 **** 0.06
7778 H 117.38744822865455 33.00019932756743 108.76441788386845 H 0.0 **** 0.06
7779 H 119.11324969867286 33.04737452913645 109.20276635347767 H 0.0 **** 0.06
7780 H 118.27347785269602 34.54439123734488 108.7307974895482 H 0.0 **** 0.06
7781 C 8.715260099504661 86.11337391456749 81.39296828603298 C 0.0 **** -0.24
7782 H 8.597659936218491 87.17394514198821 81.61051341566662 H 0.0 **** 0.06
7783 H 9.772758420006085 85.88554093945623 81.25669795018553 H 0.0 **** 0.06
7784 H 8.170482933899194 85.86689154487232 80.48086879254893 H 0.0 **** 0.06
7785 H 8.31976035600212 85.52603107108894 82.22215735565905 H 0.0 **** 0.06
7786 C 118.06030264934904 7.683888516399378 103.7067274561382 C 0.0 **** -0.24
7787 H 117.84713449114693 6.831887252531487 104.35202761320363 H 0.0 **** 0.06
7788 H 118.7050838518712 8.387602402581365 104.23497758840841 H 0.0 **** 0.06
7789 H 117.12577786637718 8.177731512929057 103.43841660012012 H 0.0 **** 0.06
7790 H 118.5621500640608 7.339337334884959 102.8024145686586 H 0.0 **** 0.06
7791 C 86.59283911373083 76.1918973523417 75.7565719042613 C 0.0 **** -0.24
7792 H 85.93784850803056 75.44027012698268 75.3178010538848 H 0.0 **** 0.06
7793 H 87.32386107226921 75.70503302003397 76.40212759594203 H 0.0 **** 0.06
7794 H 86.00004175141919 76.89280766742729 76.34333939151105 H 0.0 **** 0.06
7795 H 87.11033123771836 76.73029830887708 74.9621246242722 H 0.0 **** 0.06
7796 C 78.6325897005762 108.26504975550861 34.9461310165368 C 0.0 **** -0.24
7797 H 79.6465417256968 108.3246667010271 34.55212191443855 H 0.0 **** 0.06
7798 H 78.39078966262079 109.19229314373416 35.467808788130945 H 0.0 **** 0.06
7799 H 78.56129867862612 107.42836363473995 35.64042634479454 H 0.0 **** 0.06
7800 H 77.93184375769522 108.11663556676311 34.125110049653806 H 0.0 **** 0.06
7801 C 26.02180961138263 60.46150359331375 14.929164981453738 C 0.0 **** -0.24
7802 H 26.33658744736951 61.17609120458417 15.689732922835248 H 0.0 **** 0.06
7803 H 26.543708849955785 59.51584153356498 15.081298729012644 H 0.0 **** 0.06
7804 H 26.259538020274128 60.85441943487933 13.940969941705333 H 0.0 **** 0.06
7805 H 24.946056303295556 60.29949823417894 15.007684401688266 H 0.0 **** 0.06
7806 C 54.25044045202998 63.44585571456071 105.5981318607408 C 0.0 **** -0.24
7807 H 55.2201567389439 63.575287799674214 105.11825505636813 H 0.0 **** 0.06
7808 H 54.38223148215104 63.41268741885244 106.67972796360081 H 0.0 **** 0.06
7809 H 53.79891023979144 62.51311979417457 105.25816513507345 H 0.0 **** 0.06
7810 H 53.60064566241414 64.28062917142938 105.33666465509376 H 0.0 **** 0.06
7811 C 73.76225958935404 81.48934029437302 24.240607214948653 C 0.0 **** -0.24
7812 H 73.56486934357324 80.42426048565534 24.366933335016626 H 0.0 **** 0.06
7813 H 74.83579333905507 81.66943364341842 24.30669706541478 H 0.0 **** 0.06
7814 H 73.25169910464925 82.04876813279404 25.024867788498995 H 0.0 **** 0.06
7815 H 73.3980679093508 81.81339586837592 23.266898118888577 H 0.0 **** 0.06
7816 C 40.31284406180964 104.82078111312589 25.301243249717885 C 0.0 **** -0.24
7817 H 39.405467697554 105.37558509867728 25.54216825991216 H 0.0 **** 0.06
7818 H 41.17780194582805 105.47347154374347 25.413627041085896 H 0.0 **** 0.06
7819 H 40.25679554753893 104.46390479928942 24.27272538228224 H 0.0 **** 0.06
7820 H 40.40760455075183 103.96975086992978 25.97614779026371 H 0.0 **** 0.06
7821 C 50.93880219346575 73.62585251440586 68.41355448806308 C 0.0 **** -0.24
7822 H 50.48122489075462 73.35464115817766 67.46208901422133 H 0.0 **** 0.06
7823 H 52.01542603325474 73.46499695340688 68.3575926575175 H 0.0 **** 0.06
7824 H 50.519162463411085 73.00705034619196 69.20676852490527 H 0.0 **** 0.06
7825 H 50.7376803702526 74.67513654104906 68.62702840315498 H 0.0 **** 0.06
7826 C 80.90207982168471 32.21378896228399 109.03868948690956 C 0.0 **** -0.24
7827 H 80.47923598638812 31.2913602432454 109.4353548595401 H 0.0 **** 0.06
7828 H 80.1610748201143 33.01136700932164 109.10432526187327 H 0.0 **** 0.06
7829 H 81.18495413182697 32.06499110115883 107.99669839324804 H 0.0 **** 0.06
7830 H 81.7842914020834 32.488097862360405 109.61819578923439 H 0.0 **** 0.06
7831 C 41.22744872370353 18.93237872191628 29.976571763962596 C 0.0 **** -0.24
7832 H 40.41240327233453 19.090701268179828 29.27116978713056 H 0.0 **** 0.06
7833 H 40.85452524811444 18.39296589807094 30.847168116422708 H 0.0 **** 0.06
7834 H 41.62942653355438 19.89606771877868 30.290132786262035 H 0.0 **** 0.06
7835 H 42.01476828160449 18.349364362265135 29.497566167183777 H 0.0 **** 0.06
7836 C 35.28502037172248 43.91589516098935 13.413485961663042 C 0.0 **** -0.24
7837 H 34.81896892372018 44.80202057680856 13.845689601977455 H 0.0 **** 0.06
7838 H 34.86946779317742 43.733832578380174 12.422576591948584 H 0.0 **** 0.06
7839 H 35.091616458629304 43.05503151467721 14.052959807797535 H 0.0 **** 0.06
7840 H 36.36110688802319 44.07443733371511 13.333614849589395 H 0.0 **** 0.06
7841 C 97.62552667061823 13.29950351873822 107.31438534909114 C 0.0 **** -0.24
7842 H 96.7625408296305 13.582786075892102 107.9163600323289 H 0.0 **** 0.06
7843 H 98.50989666481672 13.821317064718187 107.68032452071824 H 0.0 **** 0.06
7844 H 97.44746817928143 13.570420957126373 106.27378646589133 H 0.0 **** 0.06
7845 H 97.78132272682723 12.2236996880697 107.38750014235532 H 0.0 **** 0.06
7846 C 75.57058609347928 107.64269671173193 31.16472869651283 C 0.0 **** -0.24
7847 H 75.53937420934844 106.78032114005651 30.49911221609296 H 0.0 **** 0.06
7848 H 76.52348188066406 108.15869435938237 31.045178703791393 H 0.0 **** 0.06
7849 H 75.46594971068527 107.30862264859209 32.19712537088638 H 0.0 **** 0.06
7850 H 74.75533752109428 108.32165815828557 30.918234979635827 H 0.0 **** 0.06
7851 C 117.08370983998114 84.2924184251853 105.35898282550832 C 0.0 **** -0.24
7852 H 116.95901532041745 83.2308349482835 105.57164666112556 H 0.0 **** 0.06
7853 H 116.16880850040378 84.8246864602813 105.61911049069167 H 0.0 **** 0.06
7854 H 117.29537795018179 84.42847668394353 104.29874141296165 H 0.0 **** 0.06
7855 H 117.91307597024407 84.6853516979954 105.94811393315058 H 0.0 **** 0.06
7856 C 51.51251709133999 91.33337038207426 67.92884094542083 C 0.0 **** -0.24
7857 H 51.80927943334029 91.12063151982926 66.90267413631531 H 0.0 **** 0.06
7858 H 51.15763902189133 90.41675461525557 68.401519801977 H 0.0 **** 0.06
7859 H 50.714528164311616 92.07541575883155 67.93039732417631 H 0.0 **** 0.06
7860 H 52.36852310645503 91.71919878628802 68.48211325850801 H 0.0 **** 0.06
7861 C 40.977762190330424 69.09487307480919 118.4521966026658 C 0.0 **** -0.24
7862 H 41.48871646778835 69.9172367822085 117.9504159274887 H 0.0 **** 0.06
7863 H 40.233797128140424 69.494771140871 119.14126384064022 H 0.0 **** 0.06
7864 H 41.70494307342187 68.50028592511808 119.00566407633204 H 0.0 **** 0.06
7865 H 40.48549852738242 68.46739908731095 117.70892745075062 H 0.0 **** 0.06
7866 C 34.957832451837874 28.165691767780743 35.989148624878226 C 0.0 **** -0.24
7867 H 35.10713527743218 27.99306949674309 37.054971004530444 H 0.0 **** 0.06
7868 H 35.8872558912052 28.52579359116882 35.54651113198392 H 0.0 **** 0.06
7869 H 34.1751461043429 28.910954087066074 35.848002329273356 H 0.0 **** 0.06
7870 H 34.66290565880615 27.232706217821516 35.50794770083769 H 0.0 **** 0.06
7871 C 73.38032909116862 103.85817611966368 49.59839023162422 C 0.0 **** -0.24
7872 H 73.71969748674167 104.6391240601975 50.27947361945263 H 0.0 **** 0.06
7873 H 72.94113997729471 104.31513904467405 48.71191524312101 H 0.0 **** 0.06
7874 H 72.63223171793004 103.24114250311172 50.0980702034951 H 0.0 **** 0.06
7875 H 74.22730898240513 103.23732044478433 49.307283043704246 H 0.0 **** 0.06
7876 C 64.68860031514839 112.13327521948756 73.90398885265523 C 0.0 **** -0.24
7877 H 65.29254364095863 112.97422762573387 73.56368513621086 H 0.0 **** 0.06
7878 H 63.73199879241406 112.13771442662048 73.38075946484099 H 0.0 **** 0.06
7879 H 64.5167912461863 112.22076780322519 74.97708663695565 H 0.0 **** 0.06
7880 H 65.21345405266135 111.20109381343337 73.69558900553227 H 0.0 **** 0.06
7881 C 17.658480858315897 75.90987217456802 108.73789777746438 C 0.0 **** -0.24
7882 H 17.644427087655856 76.80338240628325 109.36221748667788 H 0.0 **** 0.06
7883 H 18.494041829225807 75.96807774640294 108.03970499916579 H 0.0 **** 0.06
7884 H 16.72326783695479 75.84171005225807 108.18206447023044 H 0.0 **** 0.06
7885 H 17.771187012011808 75.02832282776023 109.36859594132011 H 0.0 **** 0.06
7886 C 16.895044142790482 48.28766277267661 85.60597671534339 C 0.0 **** -0.24
7887 H 17.255189080931615 48.54940879923927 84.61024840972726 H 0.0 **** 0.06
7888 H 15.815062044633919 48.13832725182547 85.57357627409235 H 0.0 **** 0.06
7889 H 17.13024494666861 49.094374257382725 86.29950914794563 H 0.0 **** 0.06
7890 H 17.37999458208354 47.369424014256055 85.93739154170208 H 0.0 **** 0.06
7891 C 91.20265862800616 22.411625899044935 115.15993764091291 C 0.0 **** -0.24
7892 H 90.52286498633586 23.22710096437359 115.40896416372627 H 0.0 **** 0.06
7893 H 90.8849730014692 21.945271477219073 114.22790305506842 H 0.0 **** 0.06
7894 H 91.19052460565868 21.672219213371562 115.96029044474713 H 0.0 **** 0.06
7895 H 92.21320849803644 22.804192192659904 115.0445737657949 H 0.0 **** 0.06
7896 C 96.5569502188674 57.63247217580181 27.856860586242647 C 0.0 **** -0.24
7897 H 97.62407248468148 57.575575828053644 28.070174839059547 H 0.0 **** 0.06
7898 H 96.20737399951472 58.652004441815876 28.022298204593028 H 0.0 **** 0.06
7899 H 96.01763833972822 56.9516631475488 28.514885548985234 H 0.0 **** 0.06
7900 H 96.37823795391768 57.35204096901296 26.818403344849912 H 0.0 **** 0.06
7901 C 26.949924640117445 116.72851987911541 78.03169881768952 C 0.0 **** -0.24
7902 H 26.1654472652927 116.50704422556879 78.75529463671842 H 0.0 **** 0.06
7903 H 26.57383414875983 116.5546643941902 77.02379737894955 H 0.0 **** 0.06
7904 H 27.808363901649557 116.0830943566025 78.21633096346079 H 0.0 **** 0.06
7905 H 27.25095500401153 117.77204789523431 78.13170986965838 H 0.0 **** 0.06
7906 C 80.6087646746391 63.67557375828674 8.0957383431337 C 0.0 **** -0.24
7907 H 79.82439640523978 63.5162031057672 8.83529734221542 H 0.0 **** 0.06
7908 H 81.52312634612997 63.18061085194268 8.425184342388281 H 0.0 **** 0.06
7909 H 80.79324056341963 64.7436925058488 7.985642671110011 H 0.0 **** 0.06
7910 H 80.29592497649699 63.26024277082501 7.137806394789948 H 0.0 **** 0.06
7911 C 107.15573951257039 0.22969519674337846 99.77143291564147 C 0.0 **** -0.24
7912 H 107.2801958839909 -0.10401661304810261 98.74170668119743 H 0.0 **** 0.06
7913 H 106.41572389891775 1.0287172550092407 99.80742915820937 H 0.0 **** 0.06
7914 H 108.10871694327497 0.5986364212198794 100.15149811225433 H 0.0 **** 0.06
7915 H 106.8195122095735 -0.6059193165549175 100.38641079548239 H 0.0 **** 0.06
7916 C 113.41470139606412 48.549137836562664 91.12252958100638 C 0.0 **** -0.24
7917 H 113.72411794802247 49.20441297314673 90.30839997686812 H 0.0 **** 0.06
7918 H 113.73918111075206 47.52983178670867 90.91225537426473 H 0.0 **** 0.06
7919 H 112.32881596163116 48.57342442458176 91.2157450950977 H 0.0 **** 0.06
7920 H 113.86710202873289 48.89015885769999 92.0541660469473 H 0.0 **** 0.06
7921 C 13.761361174994342 88.75087693195835 104.70036304329815 C 0.0 **** -0.24
7922 H 13.661239146756277 89.717403318121 105.19401215091312 H 0.0 **** 0.06
7923 H 14.816893464572907 88.48918353148625 104.62570191084708 H 0.0 **** 0.06
7924 H 13.328234014589164 88.80612489788663 103.70121355421179 H 0.0 **** 0.06
7925 H 13.238199275577475 87.99038469896291 105.28076666571079 H 0.0 **** 0.06
7926 C 73.32433368113433 88.22485149693983 18.526757494078424 C 0.0 **** -0.24
7927 H 73.31425885574507 89.05053248889618 19.238093921159475 H 0.0 **** 0.06
7928 H 72.55346943077802 87.50293393334337 18.796378464036195 H 0.0 **** 0.06
7929 H 74.30041709443739 87.7405746789183 18.54618008889264 H 0.0 **** 0.06
7930 H 73.12899245818983 88.60741435564339 17.524195435830052 H 0.0 **** 0.06
7931 C 59.25419772860722 67.95393002360697 51.19699602445675 C 0.0 **** -0.24
7932 H 59.46963471360649 67.70473694340151 52.23667911004833 H 0.0 **** 0.06
7933 H 58.708221760168435 67.13138517830677 50.73337394487139 H 0.0 **** 0.06
7934 H 60.18848205904721 68.11821234163546 50.661408344788114 H 0.0 **** 0.06
7935 H 58.649275701372545 68.85952940338586 51.158796549253964 H 0.0 **** 0.06
7936 C 92.79682987130528 25.74879181932519 42.53109252651964 C 0.0 **** -0.24
7937 H 93.58528799805569 25.009609320295 42.670383979241905 H 0.0 **** 0.06
7938 H 92.2042595752255 25.82423076125619 43.4418732037073 H 0.0 **** 0.06
7939 H 92.15583039595182 25.44336000002039 41.70406700842983 H 0.0 **** 0.06
7940 H 93.2437226689971 26.717557157728407 42.30566686788194 H 0.0 **** 0.06
7941 C 116.22644096124696 104.52727877919799 102.2585181779493 C 0.0 **** -0.24
7942 H 115.5488808209052 105.37230229328196 102.3828269627025 H 0.0 **** 0.06
7943 H 117.16392873543057 104.73492747861326 102.77417194623473 H 0.0 **** 0.06
7944 H 116.42238965654295 104.37254665273818 101.19764627737769 H 0.0 **** 0.06
7945 H 115.77027377229356 103.6310252356131 102.67916080703324 H 0.0 **** 0.06
7946 C 13.309938829580211 6.148496409532015 77.90588177326237 C 0.0 **** -0.24
7947 H 13.165629011948969 5.189846336129474 77.40783576100495 H 0.0 **** 0.06
7948 H 14.071251829165686 6.721739938612714 77.37604543217856 H 0.0 **** 0.06
7949 H 13.6328501417375 5.97852199345316 78.9334951100331 H 0.0 **** 0.06
7950 H 12.371264276962066 6.702086136559167 77.9066550778519 H 0.0 **** 0.06
7951 C 83.71083351588811 58.69322322602596 72.63844080029745 C 0.0 **** -0.24
7952 H 84.24056110320464 58.22065105385238 71.81103196612705 H 0.0 **** 0.06
7953 H 83.58576859030404 57.972997176541185 73.44659195957178 H 0.0 **** 0.06
7954 H 82.73281303579279 59.03125825867742 72.29687038194317 H 0.0 **** 0.06
7955 H 84.28498372415015 59.54755970681935 72.99722186725103 H 0.0 **** 0.06
7956 C 109.16001585886926 83.1719034299764 56.940013729412044 C 0.0 **** -0.24
7957 H 110.18810780350117 82.82897213115231 57.05858538026865 H 0.0 **** 0.06
7958 H 109.07976918473116 84.20577360455653 57.276378238360735 H 0.0 **** 0.06
7959 H 108.49736262124296 82.54333124565832 57.536171350467555 H 0.0 **** 0.06
7960 H 108.8738114772589 83.10680337890776 55.890146509506934 H 0.0 **** 0.06
7961 C 29.297959870507036 107.82872298992564 119.84356014862759 C 0.0 **** -0.24
7962 H 29.365520134094602 107.57324113644162 120.90062954745932 H 0.0 **** 0.06
7963 H 30.290913626995113 107.78239351602414 119.39493155272194 H 0.0 **** 0.06
7964 H 28.898180851060793 108.83711765721256 119.73858378227511 H 0.0 **** 0.06
7965 H 28.639211003542364 107.1219300749523 119.33998812950276 H 0.0 **** 0.06
7966 C 83.06740781756491 119.34350115036432 36.26551325142643 C 0.0 **** -0.24
7967 H 83.0441975363139 120.29938537313213 35.74234620684061 H 0.0 **** 0.06
7968 H 82.20802238580922 119.27475814200986 36.93364444719563 H 0.0 **** 0.06
7969 H 83.98629967251554 119.269476211913 36.84549436468782 H 0.0 **** 0.06
7970 H 83.02903317913751 118.53090430107618 35.5393803918181 H 0.0 **** 0.06
7971 C 117.11111149038024 110.68263073191991 19.185245256045107 C 0.0 **** -0.24
7972 H 118.06457033063978 111.19763286522033 19.308587263823767 H 0.0 **** 0.06
7973 H 116.34011633700405 111.40578339936025 18.919333952051204 H 0.0 **** 0.06
7974 H 116.84142238193431 110.19115894494288 20.12104571665992 H 0.0 **** 0.06
7975 H 117.20032993289351 109.93788902179466 18.395655571645193 H 0.0 **** 0.06
7976 C 115.71989123239202 94.06164170144245 5.200921393477909 C 0.0 **** -0.24
7977 H 115.32525190493757 94.78834059588667 4.490717441245362 H 0.0 **** 0.06
7978 H 115.12147457619783 93.15148050089999 5.159955215631687 H 0.0 **** 0.06
7979 H 115.67821204158788 94.47984264011092 6.20763836498125 H 0.0 **** 0.06
7980 H 116.75393971222043 93.82938517850732 4.946544179152717 H 0.0 **** 0.06
7981 C 62.66746768592443 69.28094468301293 40.66541863813319 C 0.0 **** -0.24
7982 H 62.41638157098982 68.9626758900252 39.653932191968636 H 0.0 **** 0.06
7983 H 61.87342275918281 68.97883646659687 41.348704405459316 H 0.0 **** 0.06
7984 H 62.774972570694636 70.36513852753149 40.68894538240933 H 0.0 **** 0.06
7985 H 63.605597142432764 68.8162231884246 40.97105610373883 H 0.0 **** 0.06
7986 C 96.18993756183932 83.43686428443965 45.32873869378153 C 0.0 **** -0.24
7987 H 96.52341523103556 84.42834198372796 45.63305542851896 H 0.0 **** 0.06
7988 H 95.23214621726106 83.21402807765219 45.80137811517676 H 0.0 **** 0.06
7989 H 96.92720253425199 82.69551214119065 45.635454264153736 H 0.0 **** 0.06
7990 H 96.07457178316179 83.40923482484794 44.24530135436896 H 0.0 **** 0.06
7991 C 106.28449991502418 60.421910691579406 61.86948409823186 C 0.0 **** -0.24
7992 H 107.06905468588724 59.68991512616254 61.67504775618236 H 0.0 **** 0.06
7993 H 105.32183799006086 59.91402065520305 61.933491092349094 H 0.0 **** 0.06
7994 H 106.25853675233677 61.14985523318402 61.059025123496006 H 0.0 **** 0.06
7995 H 106.49001877434114 60.93225287983646 62.809784533665585 H 0.0 **** 0.06
7996 C 106.56518415777441 107.68303433358838 4.188623647288068 C 0.0 **** -0.24
7997 H 105.74461985989603 106.99787690030973 4.4030640583553975 H 0.0 **** 0.06
7998 H 107.50661813432737 107.23021108374587 4.502024960052552 H 0.0 **** 0.06
7999 H 106.41164649801874 108.61534845157723 4.731592038158965 H 0.0 **** 0.06
8000 H 106.59782023873834 107.8851177244357 3.1182142420038588 H 0.0 **** 0.06
8001 C 81.22883885035125 91.23129168889344 83.53042484443674 C 0.0 **** -0.24
8002 H 81.85936846285637 90.51571649306618 84.05834120865387 H 0.0 **** 0.06
8003 H 81.8580730200317 91.96816322060701 83.02969445739859 H 0.0 **** 0.06
8004 H 80.57599196656102 91.73476914679355 84.24264985201239 H 0.0 **** 0.06
8005 H 80.62524321983437 90.70672434998511 82.79005093496443 H 0.0 **** 0.06
8006 C 44.6766303699983 120.807580407009 45.808816279204564 C 0.0 **** -0.24
8007 H 44.58795474114586 120.58206738470743 46.8720155525977 H 0.0 **** 0.06
8008 H 43.69107368713396 120.76700239739053 45.34539254395264 H 0.0 **** 0.06
8009 H 45.331603586281645 120.0752988931477 45.337186154036715 H 0.0 **** 0.06
8010 H 45.09689884775364 121.80516496888211 45.68418668874705 H 0.0 **** 0.06
8011 C 57.23701720028407 9.950122701378831 67.71897990244238 C 0.0 **** -0.24
8012 H 56.96276295066451 10.917727122646284 68.13796243117812 H 0.0 **** 0.06
8013 H 57.374321740774405 10.04587814637486 66.64249329451349 H 0.0 **** 0.06
8014 H 56.44522346475594 9.229399099451541 67.92252911753556 H 0.0 **** 0.06
8015 H 58.16636185691135 9.606614863753578 68.17490433057543 H 0.0 **** 0.06
8016 C 105.77312835155413 31.750087752979255 18.485721364247965 C 0.0 **** -0.24
8017 H 106.03458799665012 30.797604917947524 18.946856311073816 H 0.0 **** 0.06
8018 H 105.62897110449498 31.60746044803915 17.414861776878354 H 0.0 **** 0.06
8019 H 106.57659129549683 32.46707392170504 18.652722046203763 H 0.0 **** 0.06
8020 H 104.85192407655407 32.127500763722026 18.929962570328485 H 0.0 **** 0.06
8021 C 68.38635814321233 76.79826211310083 80.54051929104824 C 0.0 **** -0.24
8022 H 69.2283293505725 76.62044559279988 81.21028787576668 H 0.0 **** 0.06
8023 H 68.00864019315748 75.84503834055712 80.16953982400452 H 0.0 **** 0.06
8024 H 68.7136201451984 77.41060449670618 79.69995784504326 H 0.0 **** 0.06
8025 H 67.59495492203604 77.31703785185115 81.0813009399701 H 0.0 **** 0.06
8026 C 79.68396822521368 12.817811440044608 13.757314403949906 C 0.0 **** -0.24
8027 H 78.63169957784581 12.915674830776652 14.024120655242882 H 0.0 **** 0.06
8028 H 80.30265731447042 13.067776991708456 14.619740177547158 H 0.0 **** 0.06
8029 H 79.91529262562136 13.49552934459905 12.935233129308273 H 0.0 **** 0.06
8030 H 79.88609842018943 11.791869974459246 13.449253315241208 H 0.0 **** 0.06
8031 C 66.80490669532801 57.286396533175804 111.86176951605486 C 0.0 **** -0.24
8032 H 67.72942025740173 57.860955386872405 111.92753413892133 H 0.0 **** 0.06
8033 H 67.012076692791 56.239647282740094 112.08518113395236 H 0.0 **** 0.06
8034 H 66.39654353697563 57.3711694713806 110.85489455409319 H 0.0 **** 0.06
8035 H 66.08356430476945 57.67589879238582 112.58032938826686 H 0.0 **** 0.06
8036 C 80.18217769514874 28.911794317021645 71.44587175237538 C 0.0 **** -0.24
8037 H 79.53138048859316 28.13446935430204 71.04552312370092 H 0.0 **** 0.06
8038 H 81.03524383344265 28.449875746555165 71.94405203329228 H 0.0 **** 0.06
8039 H 79.62621116853262 29.51710497253049 72.16195859810117 H 0.0 **** 0.06
8040 H 80.5357744219757 29.544947711275825 70.63257154793908 H 0.0 **** 0.06
8041 C 60.85860332155144 121.21953989525227 44.017342546025205 C 0.0 **** -0.24
8042 H 61.73931171646521 121.71389878235493 43.60794528482198 H 0.0 **** 0.06
8043 H 60.84370506815324 121.34230607814817 45.09977664182617 H 0.0 **** 0.06
8044 H 60.889690655898676 120.1580153543594 43.7710655163082 H 0.0 **** 0.06
8045 H 59.96034798804092 121.66494757166234 43.58881071455841 H 0.0 **** 0.06
8046 C 66.61255989254605 45.33312947132253 61.7162464085379 C 0.0 **** -0.24
8047 H 66.18218230244628 46.24833696684559 62.12399455882877 H 0.0 **** 0.06
8048 H 67.33072013348763 45.58647870477498 60.93658613182083 H 0.0 **** 0.06
8049 H 65.81847219625286 44.71616994950712 61.29352083699669 H 0.0 **** 0.06
8050 H 67.11609877680587 44.783327613999134 62.5112386252145 H 0.0 **** 0.06
8051 C 112.32158115397107 79.95631493934167 7.255730892914443 C 0.0 **** -0.24
8052 H 111.76879781114053 79.56479557589199 6.401570303656484 H 0.0 **** 0.06
8053 H 112.56189630916379 81.00501442657543 7.082257224429441 H 0.0 **** 0.06
8054 H 113.24216794933017 79.38756750507565 7.384297618298291 H 0.0 **** 0.06
8055 H 111.71138276628193 79.86706217230571 8.154846032660004 H 0.0 **** 0.06
8056 C 44.154327658203016 58.33750145241834 93.56208089672819 C 0.0 **** -0.24
8057 H 44.33963273378518 57.313539434442816 93.23775399455997 H 0.0 **** 0.06
8058 H 43.56067193587532 58.3263498049937 94.4765423183112 H 0.0 **** 0.06
8059 H 43.61233214817196 58.872311746778905 92.78286726657811 H 0.0 **** 0.06
8060 H 45.10448342624187 58.83609157160265 93.75132938041625 H 0.0 **** 0.06
8061 C 50.55551508090042 37.54605401690905 104.44005889310063 C 0.0 **** -0.24
8062 H 51.471785330715136 38.133538171765395 104.49442157062458 H 0.0 **** 0.06
8063 H 50.1397330637534 37.61444244535808 103.43450804974617 H 0.0 **** 0.06
8064 H 49.833465262525465 37.93143994256761 105.15966285033116 H 0.0 **** 0.06
8065 H 50.77775918714491 36.50406733171876 104.67170619498424 H 0.0 **** 0.06
8066 C 77.77259510711545 70.49030133472448 72.03676077846174 C 0.0 **** -0.24
8067 H 78.13162021262454 71.51315859796969 71.91990120396363 H 0.0 **** 0.06
8068 H 77.8167041023608 69.97883953465563 71.074398871229 H 0.0 **** 0.06
8069 H 76.74330679628989 70.50569542988725 72.393921352821 H 0.0 **** 0.06
8070 H 78.39975210117359 69.96533463100644 72.75666017565123 H 0.0 **** 0.06
8071 C 117.61544101967006 5.967800471982571 80.36947403014366 C 0.0 **** -0.24
8072 H 117.01308049813159 6.168045531263289 79.48435553464304 H 0.0 **** 0.06
8073 H 117.11371288708617 6.370964584710492 81.24972102061102 H 0.0 **** 0.06
8074 H 118.59121088676326 6.439530520592115 80.25880791032327 H 0.0 **** 0.06
8075 H 117.74324579799384 4.891804867568425 80.48496208174487 H 0.0 **** 0.06
8076 C 67.03556107993114 116.33969562162127 42.2695082847587 C 0.0 **** -0.24
8077 H 66.17268180131916 115.9230552691281 42.78952494045754 H 0.0 **** 0.06
8078 H 67.91723746649399 115.7387192761669 42.49102867338465 H 0.0 **** 0.06
8079 H 67.20039057962401 117.36429016201822 42.60488489008631 H 0.0 **** 0.06
8080 H 66.85036736984122 116.33347462509778 41.19541810574631 H 0.0 **** 0.06
8081 C 61.04642601064313 97.94032718316865 100.69214502660856 C 0.0 **** -0.24
8082 H 60.17490783472351 98.04770641663265 101.33827885487239 H 0.0 **** 0.06
8083 H 61.36242023278942 98.9222591297443 100.34181752420938 H 0.0 **** 0.06
8084 H 60.789836943959244 97.31406855340495 99.83737643800808 H 0.0 **** 0.06
8085 H 61.85837074970999 97.47500540603542 101.25201427601408 H 0.0 **** 0.06
8086 C 22.05617668706634 26.869612958084844 10.32736831824883 C 0.0 **** -0.24
8087 H 23.046687187464272 27.14313541814849 9.96516052307453 H 0.0 **** 0.06
8088 H 21.486101696690184 27.773358883002402 10.545634231515209 H 0.0 **** 0.06
8089 H 22.153298344037694 26.27377401302894 11.234471079416721 H 0.0 **** 0.06
8090 H 21.537897841957374 26.288097958759636 9.564894400376772 H 0.0 **** 0.06
8091 C 83.0235610853994 70.47677927357006 0.7064741395204805 C 0.0 **** -0.24
8092 H 83.6861628243727 71.11491123924111 0.12244878345114785 H 0.0 **** 0.06
8093 H 82.20579764005123 70.12810254794744 0.07570665311436642 H 0.0 **** 0.06
8094 H 82.62082261988647 71.0436954980351 1.5457016655325901 H 0.0 **** 0.06
8095 H 83.5836946234715 69.62050926140216 1.0819940553114407 H 0.0 **** 0.06
8096 C 20.951324362396107 0.47504557042253737 2.6893279913376062 C 0.0 **** -0.24
8097 H 19.997667917472853 0.07569845449002344 3.0368614215377647 H 0.0 **** 0.06
8098 H 21.07769246285173 1.4904315230066487 3.0651226227319484 H 0.0 **** 0.06
8099 H 20.964225509818732 0.48593034686767567 1.599717886951666 H 0.0 **** 0.06
8100 H 21.762990876675346 -0.1524936420658065 3.0570998258261852 H 0.0 **** 0.06
8101 C 46.29725604429217 67.77330928715185 2.895858654884819 C 0.0 **** -0.24
8102 H 46.865257192834235 66.85104168996506 2.7733216808931616 H 0.0 **** 0.06
8103 H 46.71848149952797 68.35198520326384 3.7177043874914943 H 0.0 **** 0.06
8104 H 45.25701416442928 67.53179714156619 3.115141274036773 H 0.0 **** 0.06
8105 H 46.34867930961764 68.35553585300761 1.976020091619091 H 0.0 **** 0.06
8106 C 85.04449872125528 32.82607476174209 31.256699501098254 C 0.0 **** -0.24
8107 H 84.60294748995304 33.6564114194546 31.80797501011763 H 0.0 **** 0.06
8108 H 86.1137276111838 32.77914119883343 31.46552240224449 H 0.0 **** 0.06
8109 H 84.88795054438992 32.9756445700626 30.188557818861867 H 0.0 **** 0.06
8110 H 84.57240451932299 31.893420748496567 31.56572650868297 H 0.0 **** 0.06
8111 C 7.017373016669751 58.491174719744855 49.19865984356015 C 0.0 **** -0.24
8112 H 7.655337486992295 58.409085765058386 48.318921903309565 H 0.0 **** 0.06
8113 H 6.761700185613165 57.4932374008358 49.5568898285405 H 0.0 **** 0.06
8114 H 6.105179659673382 59.028000928525294 48.93720992523823 H 0.0 **** 0.06
8115 H 7.546344422277315 59.034444769107104 49.98197782433138 H 0.0 **** 0.06
8116 C 46.82570903691882 119.03205626365198 21.861807042724763 C 0.0 **** -0.24
8117 H 46.302437715894456 119.97358971765425 21.687783634139173 H 0.0 **** 0.06
8118 H 47.707693149896116 118.98464442302475 21.222922637768583 H 0.0 **** 0.06
8119 H 46.16175368510136 118.19945676024295 21.62945067028192 H 0.0 **** 0.06
8120 H 47.12940504386066 118.97393056906495 22.906800459607005 H 0.0 **** 0.06
8121 C 9.796354200614132 50.97247232667769 55.741489460698176 C 0.0 **** -0.24
8122 H 10.458365744563736 51.795456610696874 55.47187914674822 H 0.0 **** 0.06
8123 H 10.21130150595593 50.43656505931409 56.594597432679905 H 0.0 **** 0.06
8124 H 9.70140023040372 50.29121636689479 54.89559985756608 H 0.0 **** 0.06
8125 H 8.81353457098706 51.3665463380579 56.00180163437159 H 0.0 **** 0.06
8126 C 84.24886287556865 88.09612800178161 15.11741244505254 C 0.0 **** -0.24
8127 H 84.54699843929853 88.18397923609615 16.16278345468931 H 0.0 **** 0.06
8128 H 84.2276126162073 87.0443748515649 14.832226787848306 H 0.0 **** 0.06
8129 H 84.9638030038349 88.62920311598882 14.490259597618273 H 0.0 **** 0.06
8130 H 83.25682370419469 88.5290151470615 14.98697028990518 H 0.0 **** 0.06
8131 C 38.355050596503276 60.84002486753986 9.541629059612603 C 0.0 **** -0.24
8132 H 38.00785274103933 59.80715440397953 9.529656137139625 H 0.0 **** 0.06
8133 H 37.50418874794488 61.5079437979526 9.682507190659521 H 0.0 **** 0.06
8134 H 38.84445840573139 61.06993321796008 8.594755613574648 H 0.0 **** 0.06
8135 H 39.063174301295675 60.97600277641988 10.358676746335618 H 0.0 **** 0.06
8136 C 54.44273702439753 103.48555324461532 107.6057124283436 C 0.0 **** -0.24
8137 H 53.73597735582106 104.08171165768434 107.02987047278816 H 0.0 **** 0.06
8138 H 53.96764284265262 102.55247584807773 107.91107664162067 H 0.0 **** 0.06
8139 H 54.75230607843798 104.04302763280916 108.4901254964725 H 0.0 **** 0.06
8140 H 55.31660068709786 103.26429746009444 106.99190677885639 H 0.0 **** 0.06
8141 C 118.58635010774054 15.482972847716752 65.74921453466095 C 0.0 **** -0.24
8142 H 118.6130949270303 14.669223462096312 65.0251014679827 H 0.0 **** 0.06
8143 H 119.08067439490506 15.16776694369588 66.66902155700885 H 0.0 **** 0.06
8144 H 117.54962205461838 15.743461117574583 65.96427726800175 H 0.0 **** 0.06
8145 H 119.10118103985971 16.351030168217022 65.33884072169701 H 0.0 **** 0.06
8146 C 82.44728541197529 83.84610854941923 81.47250445772036 C 0.0 **** -0.24
8147 H 82.27503549885787 83.23153743368039 82.35595928212467 H 0.0 **** 0.06
8148 H 81.92708236535785 83.41012301042906 80.61916245542636 H 0.0 **** 0.06
8149 H 83.51615949116379 83.89022766054916 81.26290996642618 H 0.0 **** 0.06
8150 H 82.07095506548958 84.85394742453258 81.65181837237779 H 0.0 **** 0.06
8151 C 108.68460625740326 45.13209549375898 84.12818545939194 C 0.0 **** -0.24
8152 H 108.98270060857021 44.12649276326766 84.4249042444294 H 0.0 **** 0.06
8153 H 107.69664873774758 45.09786566192659 83.66883766707247 H 0.0 **** 0.06
8154 H 109.40441631411986 45.528962455886585 83.41218459624804 H 0.0 **** 0.06
8155 H 108.65495477589769 45.77524057522461 85.00775372046394 H 0.0 **** 0.06
8156 C 59.400760964003695 79.36488843975917 88.93537056024704 C 0.0 **** -0.24
8157 H 58.66684244811461 80.15853834540587 88.79261688237062 H 0.0 **** 0.06
8158 H 60.385177976501865 79.72132416615187 88.63229162536521 H 0.0 **** 0.06
8159 H 59.12331442676404 78.50181255814715 88.33160365445235 H 0.0 **** 0.06
8160 H 59.425380573186914 79.07948281598203 89.98742078562836 H 0.0 **** 0.06
8161 C 115.1063710669919 96.80123868164372 60.86388447282847 C 0.0 **** -0.24
8162 H 114.37587417780571 96.05559723331402 60.550572749297 H 0.0 **** 0.06
8163 H 115.51503811684576 96.52371108594008 61.83561993894666 H 0.0 **** 0.06
8164 H 114.62142353661372 97.77518957418457 60.938058221809236 H 0.0 **** 0.06
8165 H 115.91206203636558 96.85177522327254 60.13157289863482 H 0.0 **** 0.06
8166 C 72.29514341565857 41.59472608329715 50.27381741279686 C 0.0 **** -0.24
8167 H 72.98194697933113 41.4959450755706 49.43230366362978 H 0.0 **** 0.06
8168 H 71.26896902904588 41.514072697063284 49.9146512771743 H 0.0 **** 0.06
8169 H 72.43979524354344 42.565353817800855 50.74775596810045 H 0.0 **** 0.06
8170 H 72.49103325703362 40.80420116960643 50.99752840620812 H 0.0 **** 0.06
8171 C 40.82822765897353 113.4623456490128 121.20423538708116 C 0.0 **** -0.24
8172 H 41.18603239359689 113.35258961361012 120.18071963791239 H 0.0 **** 0.06
8173 H 41.1232009075521 112.58901346804419 121.78746854142327 H 0.0 **** 0.06
8174 H 39.741430936636334 113.54781849084856 121.20213172918875 H 0.0 **** 0.06
8175 H 41.26270898842773 114.35864062656881 121.64682821506153 H 0.0 **** 0.06
8176 C 0.939196137340339 61.08845317630994 50.62029900479587 C 0.0 **** -0.24
8177 H -0.0904249409138913 61.34159492863387 50.87327296152108 H 0.0 **** 0.06
8178 H 1.0306727643646045 60.00694906327908 50.51592920841733 H 0.0 **** 0.06
8179 H 1.6028134019151707 61.43555256610637 51.412186787575536 H 0.0 **** 0.06
8180 H 1.2103925509862155 61.56865898056526 49.68114464497543 H 0.0 **** 0.06
8181 C 19.86858309833987 93.008133399023 31.55997841266361 C 0.0 **** -0.24
8182 H 20.285142029557207 93.75018419210261 30.877967068842395 H 0.0 **** 0.06
8183 H 20.24661351178095 92.02021930085789 31.29605248643952 H 0.0 **** 0.06
8184 H 18.782176418994823 93.01449821318329 31.48321227316984 H 0.0 **** 0.06
8185 H 20.163142960204738 93.24902175864804 32.58143786803913 H 0.0 **** 0.06
8186 C 71.65913459096504 55.6819635883237 112.50214340584748 C 0.0 **** -0.24
8187 H 71.85154028669538 55.4584976388098 111.45227045766615 H 0.0 **** 0.06
8188 H 72.09028022279827 54.899119690707295 113.12492339977432 H 0.0 **** 0.06
8189 H 70.58366764420273 55.73031515858466 112.67164880029482 H 0.0 **** 0.06
8190 H 72.11094015958943 56.64127387563963 112.75769128661203 H 0.0 **** 0.06
8191 C 44.9306714175014 98.20525151346021 119.3017435883593 C 0.0 **** -0.24
8192 H 44.9115194340809 98.77098577929837 118.37055883811568 H 0.0 **** 0.06
8193 H 45.02494341790137 97.14170061930699 119.07847354246786 H 0.0 **** 0.06
8194 H 44.00679972350798 98.38005147087145 119.85224803337778 H 0.0 **** 0.06
8195 H 45.77999981897986 98.5266621503265 119.90424883675442 H 0.0 **** 0.06
8196 C 103.81027488125963 77.65274810896591 23.01823389332344 C 0.0 **** -0.24
8197 H 103.85972133653632 78.27285048719946 22.123179025013542 H 0.0 **** 0.06
8198 H 103.93924249224617 78.27899379068464 23.901407075669397 H 0.0 **** 0.06
8199 H 104.60125489573858 76.90322378614499 22.985233001741804 H 0.0 **** 0.06
8200 H 102.84071386606234 77.15676989330404 23.06260924114298 H 0.0 **** 0.06
8201 C 117.51390781023372 108.20943902392511 113.01874518033983 C 0.0 **** -0.24
8202 H 118.41455154903207 107.837802339857 113.5074108717634 H 0.0 **** 0.06
8203 H 117.10204551266037 107.432425356717 112.37417836504261 H 0.0 **** 0.06
8204 H 117.76199004393551 109.08547511876645 112.41756199432098 H 0.0 **** 0.06
8205 H 116.77769109028091 108.48498656350458 113.77383499208281 H 0.0 **** 0.06
8206 C 110.65129668043551 65.96666147452197 42.946231083647035 C 0.0 **** -0.24
8207 H 110.6422810682991 65.4634238916434 41.9796542604829 H 0.0 **** 0.06
8208 H 111.67380435578593 66.01096237768303 43.32301708136646 H 0.0 **** 0.06
8209 H 110.02855533046258 65.41312612952316 43.648780686361704 H 0.0 **** 0.06
8210 H 110.26090821243585 66.97747953593603 42.83240769075155 H 0.0 **** 0.06
8211 C 58.662994096880475 86.09446624160913 72.79857985257982 C 0.0 **** -0.24
8212 H 58.79281732638325 85.68937097315595 73.8023785911727 H 0.0 **** 0.06
8213 H 58.82676977542746 87.17156928482984 72.81788395639137 H 0.0 **** 0.06
8214 H 57.651214444350444 85.8862970073925 72.45080603684733 H 0.0 **** 0.06
8215 H 59.38160494703549 85.62882556438836 72.12400417521658 H 0.0 **** 0.06
8216 C 72.97660829002226 60.91665310977998 95.57498781071169 C 0.0 **** -0.24
8217 H 73.56580916372582 60.246840188006935 96.2021346563717 H 0.0 **** 0.06
8218 H 73.17758046986009 60.70131350776716 94.5250610400362 H 0.0 **** 0.06
8219 H 73.24901705677533 61.94994849634745 95.79184786537763 H 0.0 **** 0.06
8220 H 71.9170448827984 60.76943159927041 95.78110979278838 H 0.0 **** 0.06
8221 C 38.80684871044633 90.92617569905326 60.15997254379084 C 0.0 **** -0.24
8222 H 39.32344158848713 90.9247059352829 61.119630165637915 H 0.0 **** 0.06
8223 H 38.179638690572006 90.0376711171576 60.084511615623626 H 0.0 **** 0.06
8224 H 39.54005175506569 90.92384886217394 59.35322659331595 H 0.0 **** 0.06
8225 H 38.18421799306867 91.8172462414581 60.083217234135816 H 0.0 **** 0.06
8226 C 112.36937213544209 113.74248093166746 102.791669757114 C 0.0 **** -0.24
8227 H 112.74360804143592 113.2085212400533 101.91877709010632 H 0.0 **** 0.06
8228 H 113.18714914973202 114.28697725513689 103.26292297346868 H 0.0 **** 0.06
8229 H 111.950484605307 113.02855955425633 103.50110802265507 H 0.0 **** 0.06
8230 H 111.59408393960416 114.44472538831656 102.48402043046835 H 0.0 **** 0.06
8231 C 8.45839107070205 103.14993730069406 64.27111008518025 C 0.0 **** -0.24
8232 H 8.538781595559641 102.06356316240368 64.22949589259247 H 0.0 **** 0.06
8233 H 8.766571460598414 103.5733863681561 63.31503431501783 H 0.0 **** 0.06
8234 H 9.102233436415219 103.53245797709698 65.06308361248352 H 0.0 **** 0.06
8235 H 7.424752731220366 103.43008852238685 64.47616678939173 H 0.0 **** 0.06
8236 C 113.3001603005081 37.573006562717296 119.7725024786219 C 0.0 **** -0.24
8237 H 113.44450168309629 38.41253389717926 120.45213511309524 H 0.0 **** 0.06
8238 H 113.43027952416874 37.91147406652156 118.74399631277714 H 0.0 **** 0.06
8239 H 112.2944757814434 37.172380527526 119.89888896747512 H 0.0 **** 0.06
8240 H 114.03122275979175 36.79588111383006 119.9940330865328 H 0.0 **** 0.06
8241 C 16.313185574716115 90.35330694457852 26.547085009563034 C 0.0 **** -0.24
8242 H 16.39128334632997 89.37986216177595 26.06317064841349 H 0.0 **** 0.06
8243 H 16.764084635352773 91.11356088412728 25.907635066286417 H 0.0 **** 0.06
8244 H 16.836932138492102 90.3256757103681 27.50234055247637 H 0.0 **** 0.06
8245 H 15.263151217149783 90.59321527065825 26.713842206924795 H 0.0 **** 0.06
8246 C 106.1345287414095 72.1988597364143 112.88822709999377 C 0.0 **** -0.24
8247 H 106.69542278436148 72.48742283660698 113.77721829399434 H 0.0 **** 0.06
8248 H 105.14156116172248 71.85650276916081 113.1816385645006 H 0.0 **** 0.06
8249 H 106.65892424333407 71.39540191502473 112.37195976778902 H 0.0 **** 0.06
8250 H 106.04008076771422 73.05835897635498 112.22419638277745 H 0.0 **** 0.06
8251 C 105.23826348605041 50.89149666953142 73.5768385094853 C 0.0 **** -0.24
8252 H 105.32739552596067 50.43520177079029 74.56237518391907 H 0.0 **** 0.06
8253 H 106.09358890092003 51.54650821733375 73.40175677815779 H 0.0 **** 0.06
8254 H 104.31883410339628 51.4742192469355 73.52850539571938 H 0.0 **** 0.06
8255 H 105.21526353029381 50.11190915153363 72.81592433105033 H 0.0 **** 0.06
8256 C 21.717796400314967 28.611678723183047 117.0533200000408 C 0.0 **** -0.24
8257 H 22.357050909076065 27.758664489963394 117.28324733240697 H 0.0 **** 0.06
8258 H 20.731073899468527 28.254560361646668 116.75669503629996 H 0.0 **** 0.06
8259 H 22.15767070568444 29.18551940326458 116.23764751762229 H 0.0 **** 0.06
8260 H 21.62626752941179 29.244695082400995 117.93498194770274 H 0.0 **** 0.06
8261 C 25.252896405355557 14.564204795789596 4.125874976182317 C 0.0 **** -0.24
8262 H 24.995217105862423 15.301107751623718 3.3650980396312775 H 0.0 **** 0.06
8263 H 24.47280612727792 14.539706566363275 4.8866161351068484 H 0.0 **** 0.06
8264 H 26.203280817341863 14.836154721004426 4.586935632976534 H 0.0 **** 0.06
8265 H 25.34192296817207 13.58113771454602 3.66269406394197 H 0.0 **** 0.06
8266 C 120.72424597312903 47.79141260771384 90.93586522008002 C 0.0 **** -0.24
8267 H 119.78170187529146 48.02756735652024 91.42994385432212 H 0.0 **** 0.06
8268 H 120.74701594059677 48.262306272861835 89.95241624439063 H 0.0 **** 0.06
8269 H 120.81345262230047 46.71068791701506 90.82395693189187 H 0.0 **** 0.06
8270 H 121.55315677524243 48.16471598637 91.5374852122984 H 0.0 **** 0.06
8271 C 7.142561939109328 102.42423162915702 105.1016240054135 C 0.0 **** -0.24
8272 H 7.794711484887273 101.74009142791397 104.558789519312 H 0.0 **** 0.06
8273 H 7.095588926706796 102.12622820628707 106.15023964739157 H 0.0 **** 0.06
8274 H 6.142793024952425 102.39307534384363 104.66967553993155 H 0.0 **** 0.06
8275 H 7.538389446105185 103.43749726575487 105.02900517481086 H 0.0 **** 0.06
8276 C 102.03059089100876 32.13008809621852 10.86482053818682 C 0.0 **** -0.24
8277 H 101.59372674461113 32.71848133225282 11.670772251203886 H 0.0 **** 0.06
8278 H 103.11772050989921 32.19867714399627 10.913244786025757 H 0.0 **** 0.06
8279 H 101.68474968326677 32.51564386010519 9.90538957241563 H 0.0 **** 0.06
8280 H 101.72683437629013 31.088569042894136 10.96915730102279 H 0.0 **** 0.06
8281 C 87.68055551853573 41.35788757375079 60.5514508586599 C 0.0 **** -0.24
8282 H 87.93121205266652 40.950763421766254 59.57127922910147 H 0.0 **** 0.06
8283 H 87.57567521328102 42.441264841600685 60.47788416513746 H 0.0 **** 0.06
8284 H 88.47403447030246 41.11723527175013 61.25903319091943 H 0.0 **** 0.06
8285 H 86.74161296409858 40.924297352153914 60.89498761373843 H 0.0 **** 0.06
8286 C 75.77447358415682 108.07919628153206 120.46892379870694 C 0.0 **** -0.24
8287 H 76.37034275724793 108.88083879785972 120.90495627192848 H 0.0 **** 0.06
8288 H 76.42202779293513 107.4142021966963 119.89729406349866 H 0.0 **** 0.06
8289 H 75.0185572212956 108.50587445260174 119.80899094728346 H 0.0 **** 0.06
8290 H 75.28605623996415 107.51547301779777 121.2643354906878 H 0.0 **** 0.06
8291 C 73.65191979353702 17.30589062481299 114.05364705724871 C 0.0 **** -0.24
8292 H 74.227706348796 16.539230175560995 114.57156181454268 H 0.0 **** 0.06
8293 H 74.25282704494322 17.727799492065742 113.247372555748 H 0.0 **** 0.06
8294 H 73.38183978903706 18.0939336144547 114.75721810191827 H 0.0 **** 0.06
8295 H 72.74711513545824 16.863007841319227 113.63918425303177 H 0.0 **** 0.06
8296 C 81.95710510460358 34.62217778848992 34.471643477765014 C 0.0 **** -0.24
8297 H 81.00515244457517 34.09252232317377 34.44125719310438 H 0.0 **** 0.06
8298 H 82.0239388783655 35.29818773457632 33.61816879901269 H 0.0 **** 0.06
8299 H 82.7748041334284 33.90261512887551 34.43118358718712 H 0.0 **** 0.06
8300 H 82.02421424558085 35.19672866472234 35.39628171217018 H 0.0 **** 0.06
8301 C 122.35588616026686 22.943972729047715 86.33535423112104 C 0.0 **** -0.24
8302 H 122.78623092905613 22.06128481734538 85.86129873531365 H 0.0 **** 0.06
8303 H 123.15143149493574 23.538366681085023 86.78454302423236 H 0.0 **** 0.06
8304 H 121.65212603537522 22.634733293402235 87.10768884029491 H 0.0 **** 0.06
8305 H 121.83494257964406 23.540312574956232 85.58641385119478 H 0.0 **** 0.06
8306 C 117.10764532408649 31.22160169971758 70.4241765025063 C 0.0 **** -0.24
8307 H 116.7796646205716 30.189603321205965 70.30359424849547 H 0.0 **** 0.06
8308 H 118.1880389009565 31.27730870793114 70.29090017986593 H 0.0 **** 0.06
8309 H 116.84611843451731 31.571333213115707 71.42347313037374 H 0.0 **** 0.06
8310 H 116.61624790118523 31.8481966384511 69.67959708681187 H 0.0 **** 0.06
8311 C 72.46305984494265 96.24124169444951 97.65965566098882 C 0.0 **** -0.24
8312 H 71.41531199863698 96.1411980228483 97.94414094639842 H 0.0 **** 0.06
8313 H 73.07429801084785 95.59467495120532 98.29023836498581 H 0.0 **** 0.06
8314 H 72.77664186680903 97.27695716788185 97.78736572676218 H 0.0 **** 0.06
8315 H 72.58504264649306 95.9507315287754 96.61541705876499 H 0.0 **** 0.06
8316 C 18.161487078641414 42.69197848614073 67.11929744735122 C 0.0 **** -0.24
8317 H 18.935577965499306 42.26225894272784 66.48328364406396 H 0.0 **** 0.06
8318 H 17.223454215818037 42.15988715122114 66.95996977892366 H 0.0 **** 0.06
8319 H 18.02977169460638 43.74490625788309 66.86956497201982 H 0.0 **** 0.06
8320 H 18.458318380702224 42.601058091622974 68.16360761461928 H 0.0 **** 0.06
8321 C 40.33096461523755 73.27889150568893 33.049060827261314 C 0.0 **** -0.24
8322 H 39.639843784103746 72.43880555630767 32.97155085513418 H 0.0 **** 0.06
8323 H 41.127107350951704 73.16187614375329 32.31413752971679 H 0.0 **** 0.06
8324 H 40.760780626543784 73.30416957795856 34.0501898493535 H 0.0 **** 0.06
8325 H 39.79524221154912 74.20897262731617 32.859277422995774 H 0.0 **** 0.06
8326 C 76.31548362281447 93.40087442655988 25.645040974808353 C 0.0 **** -0.24
8327 H 75.51577693979567 92.66257750189803 25.59232511616142 H 0.0 **** 0.06
8328 H 77.2339956048549 92.91786572855528 25.97922280479665 H 0.0 **** 0.06
8329 H 76.04079769606687 94.18532427832568 26.349161786324117 H 0.0 **** 0.06
8330 H 76.4727548019074 93.83665308021529 24.658073444454715 H 0.0 **** 0.06
8331 C 3.0174842822253254 75.98744254442482 11.042552818214062 C 0.0 **** -0.24
8332 H 2.640189526408335 75.05271081115882 10.626384044478641 H 0.0 **** 0.06
8333 H 3.582891788789624 75.77726392841797 11.950567379693439 H 0.0 **** 0.06
8334 H 2.179870682300219 76.64338741809044 11.278516539363522 H 0.0 **** 0.06
8335 H 3.6659855829861954 76.4733713852562 10.313859926907554 H 0.0 **** 0.06
8336 C 98.54719003206253 34.05096959129946 110.45243266784232 C 0.0 **** -0.24
8337 H 97.7820707650227 33.688421620473434 111.13976495312721 H 0.0 **** 0.06
8338 H 99.35087554120878 33.3175228531079 110.38358035364757 H 0.0 **** 0.06
8339 H 98.9476636726157 34.99484598996793 110.82165524138011 H 0.0 **** 0.06
8340 H 98.10762787939132 34.20243279737883 109.46680336964064 H 0.0 **** 0.06
8341 C 57.00653762603608 69.01935090810568 97.48796337649674 C 0.0 **** -0.24
8342 H 56.815288085073945 68.30003304396087 98.28447424926082 H 0.0 **** 0.06
8343 H 56.742410719694135 70.0194567398683 97.83079336148276 H 0.0 **** 0.06
8344 H 56.404301480132375 68.76281866476705 96.61581257543116 H 0.0 **** 0.06
8345 H 58.062456469426564 68.99264748267336 97.22114811520194 H 0.0 **** 0.06
8346 C 92.52768278213125 55.659975604134644 116.37848846157172 C 0.0 **** -0.24
8347 H 93.37843228057605 55.19814382282061 115.8784506929479 H 0.0 **** 0.06
8348 H 91.61779605639452 55.11566553121844 116.124187732492 H 0.0 **** 0.06
8349 H 92.43397991069008 56.69647826937219 116.05467197206823 H 0.0 **** 0.06
8350 H 92.68065643503203 55.62953804704486 117.45763154239057 H 0.0 **** 0.06
8351 C 17.492197074290146 101.77167994686215 65.78888460595456 C 0.0 **** -0.24
8352 H 17.15516720251486 102.16744712518809 64.83068767960373 H 0.0 **** 0.06
8353 H 16.62734465290427 101.56181636762105 66.41932078205559 H 0.0 **** 0.06
8354 H 18.131081768793763 102.50508538698838 66.28069648806715 H 0.0 **** 0.06
8355 H 18.054356689173687 100.8529011508578 65.62470431915185 H 0.0 **** 0.06
8356 C 28.03217597492818 67.24993033012018 93.68705715136764 C 0.0 **** -0.24
8357 H 28.854274630924635 67.75951142723093 94.18973800461853 H 0.0 **** 0.06
8358 H 28.381633146573165 66.8489981675915 92.7345166891721 H 0.0 **** 0.06
8359 H 27.221448688765577 67.9550362258172 93.50897019289675 H 0.0 **** 0.06
8360 H 27.673116661249537 66.43448968159748 94.31483583842322 H 0.0 **** 0.06
8361 C 81.55884619384557 12.852934943626678 29.182196127752405 C 0.0 **** -0.24
8362 H 81.98176647740965 13.65463808113077 29.786578931514413 H 0.0 **** 0.06
8363 H 80.58026479311138 12.576875317708698 29.576943820183402 H 0.0 **** 0.06
8364 H 82.22095542717568 11.987841225124214 29.212991085306527 H 0.0 **** 0.06
8365 H 81.45198922438007 13.192685448721761 28.151408864489525 H 0.0 **** 0.06
8366 C 73.5100718491588 85.7823789089743 60.091986431777606 C 0.0 **** -0.24
8367 H 74.23413098758351 86.44973194356947 59.62404578645229 H 0.0 **** 0.06
8368 H 74.03850328870723 85.00190120254175 60.64008033884971 H 0.0 **** 0.06
8369 H 72.8853228825709 85.32825140373612 59.32264834955338 H 0.0 **** 0.06
8370 H 72.88431914317701 86.35023173156446 60.77987363357524 H 0.0 **** 0.06
8371 C 61.16002120899719 50.07672985237372 57.17060848979488 C 0.0 **** -0.24
8372 H 61.77767195698516 50.94801561511201 56.951510721819595 H 0.0 **** 0.06
8373 H 61.65709752279383 49.45830516897456 57.91764004858609 H 0.0 **** 0.06
8374 H 61.01208265298388 49.49765976807413 56.259034491547105 H 0.0 **** 0.06
8375 H 60.1934460805725 50.40514012376627 57.55391828155596 H 0.0 **** 0.06
8376 C 112.48037461123533 40.72906388899287 49.824735343669325 C 0.0 **** -0.24
8377 H 113.27959712914941 40.19174778464759 49.312630872087254 H 0.0 **** 0.06
8378 H 112.16252431764855 41.575082324914376 49.21464422316875 H 0.0 **** 0.06
8379 H 112.84587907464322 41.09046132456018 50.786688872085406 H 0.0 **** 0.06
8380 H 111.63721073486712 40.058731820828996 49.98537970979127 H 0.0 **** 0.06
8381 C 48.8657161627292 56.60699687607962 23.438743352183963 C 0.0 **** -0.24
8382 H 48.86681237410835 57.52749622058073 24.02203989233311 H 0.0 **** 0.06
8383 H 49.13467181516506 56.83126957116667 22.40599468684428 H 0.0 **** 0.06
8384 H 47.87250893563515 56.159672974004366 23.468354544541057 H 0.0 **** 0.06
8385 H 49.59154245739472 55.91019779088697 23.860440482448155 H 0.0 **** 0.06
8386 C 113.62996315646049 116.35155189562562 4.699808050042293 C 0.0 **** -0.24
8387 H 114.35978304982419 116.85401165839772 4.065148907173949 H 0.0 **** 0.06
8388 H 112.62359416707528 116.63659151213045 4.390025693417073 H 0.0 **** 0.06
8389 H 113.78795079002037 116.64447542862428 5.737591660179135 H 0.0 **** 0.06
8390 H 113.7479078677473 115.27221739192146 4.60461249312732 H 0.0 **** 0.06
8391 C 120.07349323311402 108.12451207690395 104.20862179393004 C 0.0 **** -0.24
8392 H 119.56824949089793 108.59432346325377 103.36388678632136 H 0.0 **** 0.06
8393 H 121.05484456396744 107.7693423415723 103.893418401623 H 0.0 **** 0.06
8394 H 119.47932854591744 107.28338627323723 104.56432922645448 H 0.0 **** 0.06
8395 H 120.19098138061852 108.85258351507375 105.01107592330249 H 0.0 **** 0.06
8396 C 58.60037679809762 108.39284068671336 110.87846977336918 C 0.0 **** -0.24
8397 H 58.66438205820136 108.10677160691537 111.92847975279963 H 0.0 **** 0.06
8398 H 58.40572001313516 107.50808085207373 110.27267040318702 H 0.0 **** 0.06
8399 H 59.54069341586639 108.8473190674548 110.5679393605418 H 0.0 **** 0.06
8400 H 57.78975266637598 109.10931830370023 110.74680560589354 H 0.0 **** 0.06
8401 C 110.03700143744584 51.146474314187685 45.34881309326255 C 0.0 **** -0.24
8402 H 109.79516072010296 50.14999575314661 44.97857709041608 H 0.0 **** 0.06
8403 H 110.63206795562976 51.67579045379486 44.60469187565653 H 0.0 **** 0.06
8404 H 110.60536439118738 51.06101969638868 46.27546094494883 H 0.0 **** 0.06
8405 H 109.11615932602271 51.69704963536955 45.53704609329844 H 0.0 **** 0.06
8406 C 7.589969589833913 64.85293064508284 117.16168158974605 C 0.0 **** -0.24
8407 H 6.957307872319291 65.52246632088227 116.5797793590571 H 0.0 **** 0.06
8408 H 7.767852768543889 63.93843826862446 116.59716736099243 H 0.0 **** 0.06
8409 H 7.09365753233206 64.61000692446353 118.10084371393334 H 0.0 **** 0.06
8410 H 8.541548654173937 65.34238635212625 117.37044594223649 H 0.0 **** 0.06
8411 C 116.91011822094464 9.478988956083185 35.41262973653909 C 0.0 **** -0.24
8412 H 117.19071882140139 8.76326028794773 36.18441262380858 H 0.0 **** 0.06
8413 H 116.64787845399674 10.429124765309865 35.87660096961443 H 0.0 **** 0.06
8414 H 116.05457138401938 9.097028646744832 34.856118253461275 H 0.0 **** 0.06
8415 H 117.74924491086196 9.626571816659833 34.73189271369753 H 0.0 **** 0.06
8416 C 91.65559241200197 94.7552862542912 15.201599748153825 C 0.0 **** -0.24
8417 H 91.66176091388729 95.06435173770208 14.156089998722791 H 0.0 **** 0.06
8418 H 92.06774974720219 93.74952380211877 15.284902598751444 H 0.0 **** 0.06
8419 H 90.63317922174966 94.76098267484326 15.57600835630032 H 0.0 **** 0.06
8420 H 92.26149141339567 95.44606364716861 15.787764494725764 H 0.0 **** 0.06
8421 C 71.65842284462312 73.42703014198045 59.06372996601238 C 0.0 **** -0.24
8422 H 71.21111967639897 74.0473299371296 58.28721006666814 H 0.0 **** 0.06
8423 H 72.53775446114344 72.92190467046717 58.66346590027897 H 0.0 **** 0.06
8424 H 70.93360365099821 72.68421747135267 59.39798981159938 H 0.0 **** 0.06
8425 H 71.95015053877512 74.05379252102122 59.90593359576858 H 0.0 **** 0.06
8426 C 46.412256133550756 101.90644446269462 93.07780551649472 C 0.0 **** -0.24
8427 H 47.11008158777972 102.6054872604125 92.61580228570182 H 0.0 **** 0.06
8428 H 45.91333405133918 101.3258827014316 92.30120910868965 H 0.0 **** 0.06
8429 H 45.669701684270166 102.46041932228223 93.65166250672513 H 0.0 **** 0.06
8430 H 46.95766310741263 101.23480624605531 93.74143079928118 H 0.0 **** 0.06
8431 C 72.8889198254804 51.210419415069396 120.25832313167896 C 0.0 **** -0.24
8432 H 72.96526695067828 51.35824022587988 119.1812324962716 H 0.0 **** 0.06
8433 H 72.17558690053002 50.41187112445206 120.46470130694065 H 0.0 **** 0.06
8434 H 72.54793552902649 52.13293978348105 120.72830825271618 H 0.0 **** 0.06
8435 H 73.86584736082199 50.93720912098553 120.65662054702004 H 0.0 **** 0.06
8436 C 55.04992700937345 61.59769076411792 49.2063662022874 C 0.0 **** -0.24
8437 H 54.69401853427968 62.62765805111301 49.2147712477923 H 0.0 **** 0.06
8438 H 55.64037277027421 61.410292138062196 50.10405143104322 H 0.0 **** 0.06
8439 H 55.66859806864409 61.43450272940081 48.32387092224192 H 0.0 **** 0.06
8440 H 54.19709047459213 60.91876602861097 49.18357989615893 H 0.0 **** 0.06
8441 C 116.45567530007004 59.42259022755863 19.626183951441632 C 0.0 **** -0.24
8442 H 116.3086582466149 60.31455046452683 19.01774002444188 H 0.0 **** 0.06
8443 H 115.58024179313166 58.77772391222763 19.54216725196479 H 0.0 **** 0.06
8444 H 116.59402327258414 59.713122490033356 20.667942566225427 H 0.0 **** 0.06
8445 H 117.33796807647033 58.88646869152808 19.277564896516612 H 0.0 **** 0.06
8446 C 76.9951955089642 79.88692770622751 29.613861730805553 C 0.0 **** -0.24
8447 H 76.18944569054622 80.54651347945335 29.290694588992267 H 0.0 **** 0.06
8448 H 76.64395711880852 78.85503147290663 29.606058291260553 H 0.0 **** 0.06
8449 H 77.3037324839718 80.15959252154252 30.623968190679022 H 0.0 **** 0.06
8450 H 77.84145964693568 79.98899276340308 28.935328901882002 H 0.0 **** 0.06
8451 C 108.54668201325256 102.40943362548109 79.36124738811282 C 0.0 **** -0.24
8452 H 108.77106531448811 102.73464208154343 78.3451008659483 H 0.0 **** 0.06
8453 H 107.50203479093486 102.6230721112172 79.58823401085041 H 0.0 **** 0.06
8454 H 109.1873990758038 102.94395365854416 80.06351883292501 H 0.0 **** 0.06
8455 H 108.72726840902894 101.3386971895086 79.44814437316464 H 0.0 **** 0.06
8456 C 79.92406921131882 38.208902226615024 45.219746634007066 C 0.0 **** -0.24
8457 H 79.76182820387925 38.568061888096814 44.20283002165266 H 0.0 **** 0.06
8458 H 79.94043142289968 37.11896839764769 45.221660417077715 H 0.0 **** 0.06
8459 H 79.1186590656167 38.56287121568158 45.86189263181765 H 0.0 **** 0.06
8460 H 80.8768248194244 38.58753491339737 45.589863059297755 H 0.0 **** 0.06
8461 C 117.53392929544695 93.45027629065004 82.03868261349209 C 0.0 **** -0.24
8462 H 116.61960394106823 92.96717024156874 81.69355967526056 H 0.0 **** 0.06
8463 H 117.28198595175479 94.24512265053488 82.74036339388738 H 0.0 **** 0.06
8464 H 118.06550369807951 93.87269007509633 81.18582541958628 H 0.0 **** 0.06
8465 H 118.16760325300756 92.71436099464995 82.5336190945473 H 0.0 **** 0.06
8466 C 24.56311128566537 53.15939164379665 21.283303663397874 C 0.0 **** -0.24
8467 H 25.089820099789293 53.96893057631465 20.778719051232827 H 0.0 **** 0.06
8468 H 23.78965344883003 53.576733479625204 21.928585721619356 H 0.0 **** 0.06
8469 H 25.268763853201612 52.586433997635694 21.884158114514833 H 0.0 **** 0.06
8470 H 24.104025433010406 52.5072963641486 20.540476605911238 H 0.0 **** 0.06
8471 C 71.02459792564355 75.50320919434967 100.35815346777116 C 0.0 **** -0.24
8472 H 71.61571802168604 76.36687048621584 100.05256327088182 H 0.0 **** 0.06
8473 H 71.12291676510134 74.7139574927983 99.61303182052185 H 0.0 **** 0.06
8474 H 69.97741691219525 75.79261057584631 100.44554847746377 H 0.0 **** 0.06
8475 H 71.38331768587392 75.14082046533176 101.3213235719274 H 0.0 **** 0.06
8476 C 69.07391237874606 91.46786940448976 8.802783540447699 C 0.0 **** -0.24
8477 H 69.05985154097837 90.95986105935924 7.837759176311383 H 0.0 **** 0.06
8478 H 68.19283555201707 91.17969343141317 9.376251385135046 H 0.0 **** 0.06
8479 H 69.06864212286288 92.54679809357907 8.644542281670802 H 0.0 **** 0.06
8480 H 69.97307343231248 91.18474730267508 9.349699791453173 H 0.0 **** 0.06
8481 C 43.55666642085069 39.61429462326565 58.67826581190596 C 0.0 **** -0.24
8482 H 44.45675928421227 39.74945941312869 59.2782453642796 H 0.0 **** 0.06
8483 H 42.87822204191073 38.93026915126842 59.18950996877854 H 0.0 **** 0.06
8484 H 43.82651941010306 39.199062865290784 57.70698258349168 H 0.0 **** 0.06
8485 H 43.06551216682823 40.577470594089135 58.53852427384072 H 0.0 **** 0.06
8486 C 28.90211501152399 118.39622730028157 100.6956002134084 C 0.0 **** -0.24
8487 H 27.857408706474104 118.19174037501068 100.92730238527406 H 0.0 **** 0.06
8488 H 29.400893733220187 117.46687520730296 100.4193401154273 H 0.0 **** 0.06
8489 H 29.390346919676617 118.82552997169685 101.57079160889066 H 0.0 **** 0.06
8490 H 28.959735374166442 119.10085083623342 99.8659601129252 H 0.0 **** 0.06
8491 C 102.47886541074467 15.167086272731723 55.67068807366629 C 0.0 **** -0.24
8492 H 103.29535390901935 14.804968642034822 55.04667811300349 H 0.0 **** 0.06
8493 H 101.52892002424892 14.9862230990272 55.16684241041089 H 0.0 **** 0.06
8494 H 102.60122831056032 16.236273970787778 55.84482346924937 H 0.0 **** 0.06
8495 H 102.49065584923392 14.640799786736181 56.62563660720176 H 0.0 **** 0.06
8496 C 121.58863379491552 0.2538220401445983 112.58500037601036 C 0.0 **** -0.24
8497 H 121.60255640811178 0.8744309912719359 113.48069998708866 H 0.0 **** 0.06
8498 H 122.09187724736789 0.7774068749876619 111.77254727429353 H 0.0 **** 0.06
8499 H 120.55546730004113 0.04981901324902083 112.30147619319101 H 0.0 **** 0.06
8500 H 122.10279119576965 -0.685662869353223 112.78632938248305 H 0.0 **** 0.06
8501 C 87.45557076746229 75.48245982224154 64.45585940980231 C 0.0 **** -0.24
8502 H 87.6951948521197 76.54255690502333 64.53811873213414 H 0.0 **** 0.06
8503 H 88.36824251751716 74.89454455937823 64.55441427762776 H 0.0 **** 0.06
8504 H 87.00013653256269 75.28741078809429 63.48539064937014 H 0.0 **** 0.06
8505 H 86.7583832819422 75.20552902273317 65.24687527041343 H 0.0 **** 0.06
8506 C 8.678647636354583 0.5981865376685391 77.10589910636017 C 0.0 **** -0.24
8507 H 8.169407338447684 1.2227209439024023 77.83982295702069 H 0.0 **** 0.06
8508 H 9.401712490408073 -0.04153195263387488 77.61175935487867 H 0.0 **** 0.06
8509 H 9.19521559810184 1.2326747554633926 76.3854503631245 H 0.0 **** 0.06
8510 H 7.946747661703256 -0.020264567018330126 76.58657283724273 H 0.0 **** 0.06
8511 C 82.22051424033401 71.08604653068397 118.5789838874893 C 0.0 **** -0.24
8512 H 82.21307719077817 72.12634772373545 118.25365751585667 H 0.0 **** 0.06
8513 H 83.08804210742483 70.91003713034596 119.21419342988622 H 0.0 **** 0.06
8514 H 82.26918617245866 70.43412098856189 117.70640191591477 H 0.0 **** 0.06
8515 H 81.30937064867118 70.8746326506797 119.13914786971965 H 0.0 **** 0.06
8516 C 5.344821393329937 50.252005323717526 113.83722610791021 C 0.0 **** -0.24
8517 H 4.691218861169318 50.06270190678703 114.68864613752152 H 0.0 **** 0.06
8518 H 5.902435192368557 51.17418586321554 114.00593333353962 H 0.0 **** 0.06
8519 H 4.74439391935752 50.349697255542566 112.9334588842951 H 0.0 **** 0.06
8520 H 6.04162670612763 49.421831240390006 113.72250703990325 H 0.0 **** 0.06
8521 C 89.76456071393301 84.75671497983268 10.515557823253232 C 0.0 **** -0.24
8522 H 88.9119730545793 84.9912703302877 11.152961310479128 H 0.0 **** 0.06
8523 H 89.6594799302012 83.74291410354286 10.127771795895768 H 0.0 **** 0.06
8524 H 90.68347173261739 84.83087806862923 11.096836144965408 H 0.0 **** 0.06
8525 H 89.80113453573387 85.46209475437323 9.685041183342463 H 0.0 **** 0.06
8526 C 55.73935387569526 28.771980856428 23.55596983091624 C 0.0 **** -0.24
8527 H 55.1622463920082 27.883768006714774 23.298855043471235 H 0.0 **** 0.06
8528 H 56.27647571499341 29.12264836547473 22.674766363747096 H 0.0 **** 0.06
8529 H 56.45165930845775 28.52612909476636 24.34352427902357 H 0.0 **** 0.06
8530 H 55.0649881217534 29.5540787899227 23.906377942033004 H 0.0 **** 0.06
8531 C 29.130421125084034 48.89627283500474 83.78249600894901 C 0.0 **** -0.24
8532 H 29.940334124156948 48.48994209207538 84.38802831184304 H 0.0 **** 0.06
8533 H 29.104851901129585 48.38535953716121 82.81919645473889 H 0.0 **** 0.06
8534 H 29.293578287323427 49.961990710265354 83.62507546642749 H 0.0 **** 0.06
8535 H 28.181569855761467 48.74628840528811 84.29862983870146 H 0.0 **** 0.06
8536 C 74.77277038414789 27.427509779435837 4.130843692896633 C 0.0 **** -0.24
8537 H 75.17478998040963 27.287494293798517 5.134424807525136 H 0.0 **** 0.06
8538 H 75.5849420874728 27.380360222259156 3.4050791310123714 H 0.0 **** 0.06
8539 H 74.28472123686961 28.39959667047586 4.068272315954175 H 0.0 **** 0.06
8540 H 74.04786591113103 26.642255293935847 3.9174309419170186 H 0.0 **** 0.06
8541 C 119.63621729666633 37.6312932936886 106.956075233995 C 0.0 **** -0.24
8542 H 119.6897605724441 38.23419899878019 107.86225287943489 H 0.0 **** 0.06
8543 H 118.71395038330749 37.05004538704259 106.96028945131678 H 0.0 **** 0.06
8544 H 120.49172055882177 36.955790632239484 106.91805501239324 H 0.0 **** 0.06
8545 H 119.65067634422738 38.28446409764928 106.08359660184249 H 0.0 **** 0.06
8546 C 53.24211164614403 2.795364660200107 91.9893355417797 C 0.0 **** -0.24
8547 H 53.29537160093553 2.9726046978035185 90.91550760681022 H 0.0 **** 0.06
8548 H 52.20921557088165 2.893590957815249 92.3230590945744 H 0.0 **** 0.06
8549 H 53.864495035950206 3.524214096225947 92.50879252978822 H 0.0 **** 0.06
8550 H 53.60183517107689 1.7897041858486773 92.20894012714206 H 0.0 **** 0.06
8551 C 86.3173418674318 58.102248961303246 26.976320132388082 C 0.0 **** -0.24
8552 H 85.45223363164232 58.3068321429333 26.345776258140518 H 0.0 **** 0.06
8553 H 86.3228533580675 57.04829778624983 27.254880165300648 H 0.0 **** 0.06
8554 H 86.26481989400688 58.71613150362405 27.87578376470998 H 0.0 **** 0.06
8555 H 87.22996426507925 58.33898030122782 26.428399683071206 H 0.0 **** 0.06
8556 C 113.37745042306656 103.40262999990563 59.997144908928306 C 0.0 **** -0.24
8557 H 112.95966315965458 104.40752704657675 60.05971380757734 H 0.0 **** 0.06
8558 H 114.4171777259765 103.46142789057112 59.672654282923645 H 0.0 **** 0.06
8559 H 112.80474054590456 102.81524966644693 59.27871820574333 H 0.0 **** 0.06
8560 H 113.32789183845293 102.92742654924723 60.976682421066414 H 0.0 **** 0.06
8561 C 106.05939348056668 84.05939081970709 14.759267145403669 C 0.0 **** -0.24
8562 H 105.45292368985886 83.33026323470597 14.224350940933647 H 0.0 **** 0.06
8563 H 106.16935419996457 83.74807317963322 15.798395210156912 H 0.0 **** 0.06
8564 H 105.57281929935013 85.0344890360877 14.722264303157829 H 0.0 **** 0.06
8565 H 107.04227218191457 84.12649287754945 14.293754681308457 H 0.0 **** 0.06
8566 C 93.75334080571781 83.3075733444744 80.25183530557064 C 0.0 **** -0.24
8567 H 93.941689476037 84.30853781040665 79.86315797641933 H 0.0 **** 0.06
8568 H 93.09165795258329 82.77261793403576 79.57017360714795 H 0.0 **** 0.06
8569 H 93.28255731699332 83.38102875492777 81.23263568720799 H 0.0 **** 0.06
8570 H 94.696627439867 82.76900109340494 80.34065740367762 H 0.0 **** 0.06
8571 C 98.15230962920603 57.13336962785661 90.30767938367109 C 0.0 **** -0.24
8572 H 98.01950767105859 58.161621730001514 89.97149732677491 H 0.0 **** 0.06
8573 H 97.29329240793615 56.537248506346714 90.001385252717 H 0.0 **** 0.06
8574 H 98.23942663041538 57.11501060621276 91.39412943523752 H 0.0 **** 0.06
8575 H 99.05891617831887 56.720695013180375 89.86411720578707 H 0.0 **** 0.06
8576 C 8.255975267812282 49.46837885547376 39.361485367937824 C 0.0 **** -0.24
8577 H 7.18412430824085 49.337002520264505 39.215160808974765 H 0.0 **** 0.06
8578 H 8.75877556545855 49.45184031351832 38.393485069400704 H 0.0 **** 0.06
8579 H 8.640014785019925 48.66155894460411 39.98448402330308 H 0.0 **** 0.06
8580 H 8.441029004578368 50.42538722744365 39.85085465848339 H 0.0 **** 0.06
8581 C 70.04573165637302 119.05083344642372 41.898398138098976 C 0.0 **** -0.24
8582 H 71.12191183785629 119.13467433303515 42.050480563329 H 0.0 **** 0.06
8583 H 69.60416216641514 120.0478850148263 41.86841831319745 H 0.0 **** 0.06
8584 H 69.60645089232983 118.48256258570544 42.71774038604208 H 0.0 **** 0.06
8585 H 69.85131490145395 118.53910671605786 40.955784743120844 H 0.0 **** 0.06
8586 C 34.85608117935274 73.48897690369898 67.14935122653887 C 0.0 **** -0.24
8587 H 35.78070837397557 73.20719830162113 67.65258623170283 H 0.0 **** 0.06
8588 H 34.62705134489707 72.75676368674897 66.37474532870786 H 0.0 **** 0.06
8589 H 34.97485967999337 74.47326246930908 66.69607345509618 H 0.0 **** 0.06
8590 H 34.04256887053566 73.51838383994851 67.87440577592128 H 0.0 **** 0.06
8591 C 27.234553671532083 64.46379227527541 115.81218777078999 C 0.0 **** -0.24
8592 H 27.733191052610366 63.873201682426505 115.04463219749024 H 0.0 **** 0.06
8593 H 27.01161691855482 65.45688209108124 115.41972623878328 H 0.0 **** 0.06
8594 H 27.88600894073206 64.55401199354932 116.68088191230494 H 0.0 **** 0.06
8595 H 26.306150043159306 63.97173856250644 116.10353811323839 H 0.0 **** 0.06
8596 C 49.85324062220793 2.884228731337549 94.21236017754643 C 0.0 **** -0.24
8597 H 49.487821682263615 2.998333543520136 95.23355227046056 H 0.0 **** 0.06
8598 H 49.90692333432609 3.8616777904313544 93.73459501985838 H 0.0 **** 0.06
8599 H 49.1723966150773 2.2424312784663627 93.65287861650825 H 0.0 **** 0.06
8600 H 50.845038782703774 2.432094035562704 94.23119561898858 H 0.0 **** 0.06
8601 C 88.92385401463426 22.745027999201767 45.13765166302318 C 0.0 **** -0.24
8602 H 89.96006479732131 22.928805817555315 45.42421080367433 H 0.0 **** 0.06
8603 H 88.74290006700457 23.158813910783437 44.14622191251709 H 0.0 **** 0.06
8604 H 88.25824463953532 23.221690909262378 45.85752927718653 H 0.0 **** 0.06
8605 H 88.73621246345965 21.67168520745892 45.12492406627831 H 0.0 **** 0.06
8606 C 120.84993889194183 6.7533155476338464 63.86596564411193 C 0.0 **** -0.24
8607 H 121.74523249571912 6.79118801975747 63.24515473563749 H 0.0 **** 0.06
8608 H 121.13725595048956 6.690953745862458 64.91494751733242 H 0.0 **** 0.06
8609 H 120.25843466780391 5.877441368233718 63.597968730501854 H 0.0 **** 0.06
8610 H 120.25799674472512 7.65389573311802 63.70398746870361 H 0.0 **** 0.06
8611 C 104.47814574302313 27.535648458296322 53.04047705027034 C 0.0 **** -0.24
8612 H 105.25799620849779 26.80081322426753 52.840315701190576 H 0.0 **** 0.06
8613 H 104.56089049714188 27.88223768604331 54.070409242857494 H 0.0 **** 0.06
8614 H 103.50161453765645 27.07829490611107 52.8870965995616 H 0.0 **** 0.06
8615 H 104.5949139901222 28.381339798841964 52.36209403613714 H 0.0 **** 0.06
8616 C 42.60450135689394 2.0591725338296527 106.440674659112 C 0.0 **** -0.24
8617 H 43.225978968182794 2.7590435939458615 106.99766039138558 H 0.0 **** 0.06
8618 H 41.75931456594733 1.7529045552250295 107.0569987109676 H 0.0 **** 0.06
8619 H 43.19547126296472 1.1828356484002143 106.17271493597468 H 0.0 **** 0.06
8620 H 42.237099927870325 2.54074661023229 105.53341789594677 H 0.0 **** 0.06
8621 C 10.345314352692355 84.66839951091902 106.19603645385433 C 0.0 **** -0.24
8622 H 10.988689707419155 83.80384787661421 106.03167779127884 H 0.0 **** 0.06
8623 H 9.31843612731032 84.333881714374 106.34624341090546 H 0.0 **** 0.06
8624 H 10.390401273416586 85.32421068053566 105.32659755127622 H 0.0 **** 0.06
8625 H 10.683738535023565 85.21179776725256 107.07863691587576 H 0.0 **** 0.06
8626 C 1.6984921671400173 48.690321978811994 15.129702010471846 C 0.0 **** -0.24
8627 H 1.7677891432976054 49.62386279620782 14.573008652301922 H 0.0 **** 0.06
8628 H 2.3221743259125702 48.75246364750592 16.02222045894473 H 0.0 **** 0.06
8629 H 2.0415155176805797 47.86663206085407 14.503106395004352 H 0.0 **** 0.06
8630 H 0.6620385187543434 48.51767869400567 15.421644342428834 H 0.0 **** 0.06
8631 C 21.06699648975936 47.22001642148899 36.787689406869106 C 0.0 **** -0.24
8632 H 21.323885447365143 46.38922268470262 36.13113025970398 H 0.0 **** 0.06
8633 H 20.217037826697577 47.76153980545803 36.372340361108 H 0.0 **** 0.06
8634 H 21.920356392479647 47.89225900452536 36.87282385908031 H 0.0 **** 0.06
8635 H 20.80795300652872 46.83593985957373 37.77398741382399 H 0.0 **** 0.06
8636 C 29.11866805177697 80.98108767009239 65.07840063791127 C 0.0 **** -0.24
8637 H 28.322507150053298 80.37156685349328 65.50637767800862 H 0.0 **** 0.06
8638 H 28.817225073571187 82.02840844054805 65.08460114047892 H 0.0 **** 0.06
8639 H 29.307299894676113 80.6624188152312 64.05270312973295 H 0.0 **** 0.06
8640 H 30.02642368127691 80.85987301473102 65.66949695313741 H 0.0 **** 0.06
8641 C 10.786018956778278 85.63025521098876 87.62657216489174 C 0.0 **** -0.24
8642 H 11.860888173747867 85.70094136171195 87.7909489342627 H 0.0 **** 0.06
8643 H 10.299398991772222 86.52526057780227 88.01446331298277 H 0.0 **** 0.06
8644 H 10.397779961900625 84.75134968525919 88.14238487668587 H 0.0 **** 0.06
8645 H 10.586583973821021 85.54156919407524 86.55873481925957 H 0.0 **** 0.06
8646 C 25.033345050260536 2.9678539949467186 79.97825781686876 C 0.0 **** -0.24
8647 H 24.757528377064432 3.7080675000152077 79.22670189801747 H 0.0 **** 0.06
8648 H 25.765748644121587 2.278615902136119 79.55620208674964 H 0.0 **** 0.06
8649 H 24.146072359356666 2.4140973348250476 80.28374728235593 H 0.0 **** 0.06
8650 H 25.463287713038994 3.4713257146364995 80.84338473799522 H 0.0 **** 0.06
8651 C 66.70766858771432 92.41902528742969 51.62028148856183 C 0.0 **** -0.24
8652 H 66.36839492220074 92.95835259247116 52.505610049504526 H 0.0 **** 0.06
8653 H 65.8526208153572 91.95617140712449 51.12781858832764 H 0.0 **** 0.06
8654 H 67.41895128336702 91.64861098175163 51.915072527737834 H 0.0 **** 0.06
8655 H 67.18966659599542 93.1159223479811 50.934668964370076 H 0.0 **** 0.06
8656 C 82.36729326039938 30.882086838194795 86.52293613209841 C 0.0 **** -0.24
8657 H 81.72825459526914 30.385796017380784 87.25382201747365 H 0.0 **** 0.06
8658 H 82.14126422998476 30.502769467656634 85.52605129672844 H 0.0 **** 0.06
8659 H 83.41301998723685 30.683243430092745 86.76019150439345 H 0.0 **** 0.06
8660 H 82.18619159640207 31.956981096750127 86.55294787403574 H 0.0 **** 0.06
8661 C 93.47761642433397 67.3942814410189 68.21744196523568 C 0.0 **** -0.24
8662 H 92.5931287462156 67.05880533469468 68.76050692632217 H 0.0 **** 0.06
8663 H 93.17048531704674 67.91151055665307 67.30863415472373 H 0.0 **** 0.06
8664 H 94.0906852201081 66.5316967562523 67.95666153693881 H 0.0 **** 0.06
8665 H 94.05365760444244 68.07233311314786 68.84660695172096 H 0.0 **** 0.06
8666 C 30.272226313900546 86.08479816810043 35.883767309222065 C 0.0 **** -0.24
8667 H 29.379783107010667 86.50307543701427 35.41814365836704 H 0.0 **** 0.06
8668 H 30.033101777406955 85.11573179221978 36.3232568059191 H 0.0 **** 0.06
8669 H 30.62617765281874 86.76063295019875 36.6627782013548 H 0.0 **** 0.06
8670 H 31.050085220154017 85.96071308051711 35.131026659848956 H 0.0 **** 0.06
8671 C 40.16212051496766 76.40256473010334 67.34162113250886 C 0.0 **** -0.24
8672 H 41.15450019542864 76.28204215949546 66.9053848493167 H 0.0 **** 0.06
8673 H 39.485074606943286 75.66318375385339 66.91356535238012 H 0.0 **** 0.06
8674 H 39.78993060866238 77.40456252333831 67.12591003357664 H 0.0 **** 0.06
8675 H 40.22090102515535 76.2614662910392 68.42048171979565 H 0.0 **** 0.06
8676 C 56.297195405554255 104.38602987872332 49.351287201643856 C 0.0 **** -0.24
8677 H 55.87045054511358 105.36885667679954 49.55274307359517 H 0.0 **** 0.06
8678 H 56.855872877168174 104.41884270885058 48.41595307581895 H 0.0 **** 0.06
8679 H 55.496060508380815 103.65158074848799 49.27064936745123 H 0.0 **** 0.06
8680 H 56.96550871815361 104.10692416905292 50.1648739253998 H 0.0 **** 0.06
8681 C 70.74753094644532 82.62495985341451 27.527970435096563 C 0.0 **** -0.24
8682 H 70.03986462886678 82.2421600295022 26.792836578420918 H 0.0 **** 0.06
8683 H 70.3285228263995 83.50765602571349 28.01143895722086 H 0.0 **** 0.06
8684 H 71.68025184739605 82.89104521910747 27.02942505519016 H 0.0 **** 0.06
8685 H 70.94284895583999 81.8579157123163 28.2782792821761 H 0.0 **** 0.06
8686 C 99.39879584908914 113.81429891686682 18.959152412047004 C 0.0 **** -0.24
8687 H 98.766049685381 113.34494587762543 18.205495210810597 H 0.0 **** 0.06
8688 H 98.97477256357911 114.77827243963347 19.23956533243225 H 0.0 **** 0.06
8689 H 100.39928063704804 113.96197420976262 18.551919856073084 H 0.0 **** 0.06
8690 H 99.45536378415557 113.1722753220356 19.837427896686094 H 0.0 **** 0.06
8691 C 94.54772887337347 9.999884010013687 44.92640743466927 C 0.0 **** -0.24
8692 H 95.05378756530328 9.564326549697086 44.06452666660513 H 0.0 **** 0.06
8693 H 93.48070606151484 10.081667313641901 44.7170727936589 H 0.0 **** 0.06
8694 H 94.95718488979202 10.9897806623909 45.12488023560621 H 0.0 **** 0.06
8695 H 94.69932670951508 9.361824055438689 45.79645953850343 H 0.0 **** 0.06
8696 C 114.66085056629987 88.04775604627537 26.71146306015686 C 0.0 **** -0.24
8697 H 114.28845237024345 87.17552692542051 27.249446440265793 H 0.0 **** 0.06
8698 H 115.72905251481711 87.93215944977226 26.530029572266614 H 0.0 **** 0.06
8699 H 114.48808628749197 88.94335065147857 27.309545848583753 H 0.0 **** 0.06
8700 H 114.13686742114533 88.13874264323454 25.760230592049048 H 0.0 **** 0.06
8701 C 58.98165791230343 16.72645602158792 55.9275612810128 C 0.0 **** -0.24
8702 H 59.70315885111688 17.30970483204976 56.49949251407443 H 0.0 **** 0.06
8703 H 59.414618320786246 15.757170581293337 55.67797920337091 H 0.0 **** 0.06
8704 H 58.73008777797202 17.258074568736333 55.009566539319195 H 0.0 **** 0.06
8705 H 58.079616292547314 16.580987047085102 56.52170167550892 H 0.0 **** 0.06
8706 C 64.99386490935291 65.61630286814326 97.11220589560304 C 0.0 **** -0.24
8707 H 64.05390096409423 65.14136084324255 97.39289962897828 H 0.0 **** 0.06
8708 H 65.68383529648094 65.58091773814888 97.95606664210297 H 0.0 **** 0.06
8709 H 64.8086598405684 66.6544541821375 96.83652300074985 H 0.0 **** 0.06
8710 H 65.42848285594977 65.08623206761021 96.26411900581485 H 0.0 **** 0.06
8711 C 29.6210080965852 122.23739026426813 22.116642084517565 C 0.0 **** -0.24
8712 H 29.783856855551207 121.16313531936342 22.02816192186563 H 0.0 **** 0.06
8713 H 28.83614550654559 122.42555498740147 22.84948647567134 H 0.0 **** 0.06
8714 H 29.320605125036877 122.64047600879653 21.150108588031543 H 0.0 **** 0.06
8715 H 30.54344287748522 122.71893075149924 22.440501526557483 H 0.0 **** 0.06
8716 C 12.828764007170179 19.37125231855606 90.93936452897714 C 0.0 **** -0.24
8717 H 12.172208052293769 19.685037746851776 91.75054704922141 H 0.0 **** 0.06
8718 H 13.71311783811629 20.009374742084844 90.92130110702652 H 0.0 **** 0.06
8719 H 12.30059685962857 19.456697671460006 89.99004074320129 H 0.0 **** 0.06
8720 H 13.130045124832805 18.335330586411317 91.09522339894076 H 0.0 **** 0.06
8721 C 76.51366595626226 49.06098345974895 12.516024569218558 C 0.0 **** -0.24
8722 H 77.49692682474742 48.59022415645396 12.546568658363839 H 0.0 **** 0.06
8723 H 75.89384690404009 48.55741079320484 11.774058228509489 H 0.0 **** 0.06
8724 H 76.62149800422958 50.11093440464796 12.247202525888866 H 0.0 **** 0.06
8725 H 76.04319980253081 48.9831161183007 13.495727766793351 H 0.0 **** 0.06
8726 C 76.32275189699192 81.18282535303129 71.63535473894893 C 0.0 **** -0.24
8727 H 75.6198975602866 80.491831447083 72.09954464431246 H 0.0 **** 0.06
8728 H 76.84290150517958 81.74707087312822 72.40909531529275 H 0.0 **** 0.06
8729 H 75.78058638045417 81.8707526169928 70.98530639227684 H 0.0 **** 0.06
8730 H 77.04699720321577 80.62113219408712 71.04538807878993 H 0.0 **** 0.06
8731 C 36.71003625255642 73.78540364300679 24.674435185935693 C 0.0 **** -0.24
8732 H 37.5042509250911 73.68783329908561 25.413534722851068 H 0.0 **** 0.06
8733 H 36.572286063427185 72.83251484985126 24.160695837509593 H 0.0 **** 0.06
8734 H 36.98075322612149 74.55351109624078 23.94978326533203 H 0.0 **** 0.06
8735 H 35.782126148989846 74.06642188304411 25.17289555246026 H 0.0 **** 0.06
8736 C 87.69985023098056 110.90426839843275 55.84798563479359 C 0.0 **** -0.24
8737 H 87.48641047792341 110.35839475602313 54.92944683871278 H 0.0 **** 0.06
8738 H 87.41270648589045 110.29759515441424 56.707187129650094 H 0.0 **** 0.06
8739 H 87.13404823195577 111.83678168276833 55.85630999989894 H 0.0 **** 0.06
8740 H 88.76598492794139 111.1271576023166 55.899883522112646 H 0.0 **** 0.06
8741 C 104.51031951902411 17.06394587263196 70.98690490183739 C 0.0 **** -0.24
8742 H 104.22046843091104 17.765545897087957 70.204549551289 H 0.0 **** 0.06
8743 H 103.85006567535507 16.196784330896108 70.95905021226858 H 0.0 **** 0.06
8744 H 104.4304550870985 17.550857644753098 71.95854408215428 H 0.0 **** 0.06
8745 H 105.53887321203399 16.743480730792932 70.82501465597016 H 0.0 **** 0.06
8746 C 12.4486228848221 78.35119548443117 59.148389865213225 C 0.0 **** -0.24
8747 H 11.913467219358651 77.84272812783047 59.9497065510055 H 0.0 **** 0.06
8748 H 11.733719923908666 78.85785931910661 58.49850775458884 H 0.0 **** 0.06
8749 H 13.01214263966311 77.620670184814 58.567506544774716 H 0.0 **** 0.06
8750 H 13.133957412150224 79.08371531681269 59.5750975211291 H 0.0 **** 0.06
8751 C 67.70638231311969 121.2636499045983 51.7295768454735 C 0.0 **** -0.24
8752 H 68.67635928007505 121.06219887997361 52.18500668553247 H 0.0 **** 0.06
8753 H 66.93741980628471 121.27325057420153 52.50253005303273 H 0.0 **** 0.06
8754 H 67.4797409316665 120.48614886067546 51.000657858451405 H 0.0 **** 0.06
8755 H 67.7328645596169 122.23214169166452 51.23134957639979 H 0.0 **** 0.06
8756 C 77.50037213896206 113.77284196406674 61.53581659484172 C 0.0 **** -0.24
8757 H 76.61131715476645 113.2679553550422 61.1571638385027 H 0.0 **** 0.06
8758 H 78.35103621138887 113.09232941069988 61.492533140558294 H 0.0 **** 0.06
8759 H 77.33207139427054 114.07880726929727 62.56899242316854 H 0.0 **** 0.06
8760 H 77.70640526657382 114.65200245699214 60.9257983382945 H 0.0 **** 0.06
8761 C 121.69345731523444 44.8938568895355 2.5176287980742984 C 0.0 **** -0.24
8762 H 120.8838108808958 44.246544193202 2.181310454048514 H 0.0 **** 0.06
8763 H 122.39076150069052 44.31705822521221 3.1257647528198618 H 0.0 **** 0.06
8764 H 121.28316866806293 45.710517333480084 3.111197704083793 H 0.0 **** 0.06
8765 H 122.21667609097457 45.30004099448763 1.6520193536345005 H 0.0 **** 0.06
8766 C 26.22032673336733 34.81012719507052 34.5196737106902 C 0.0 **** -0.24
8767 H 26.42936413768257 35.10111458824659 35.54857349621443 H 0.0 **** 0.06
8768 H 26.47744685213962 35.63230103935504 33.85117719491424 H 0.0 **** 0.06
8769 H 25.159655498876816 34.57604725844757 34.41637135103784 H 0.0 **** 0.06
8770 H 26.812548315074025 33.932702372527245 34.26262443794431 H 0.0 **** 0.06
8771 C 120.4851411418899 81.83660706957602 100.31212235958225 C 0.0 **** -0.24
8772 H 119.72210003829045 82.17768388281885 101.0126043894258 H 0.0 **** 0.06
8773 H 121.20881305185273 81.21466904106097 100.83989905253443 H 0.0 **** 0.06
8774 H 120.99252083735877 82.69901933080826 99.88136722085704 H 0.0 **** 0.06
8775 H 120.01574097096426 81.2563827375451 99.51877928255712 H 0.0 **** 0.06
8776 C 30.55515042298922 96.61346968848557 1.882967522687693 C 0.0 **** -0.24
8777 H 31.528200202007667 96.2681650875108 2.234925036077243 H 0.0 **** 0.06
8778 H 30.664725553947754 97.5952687324928 1.421189311105536 H 0.0 **** 0.06
8779 H 29.868388031719704 96.68312711072244 2.726620531056028 H 0.0 **** 0.06
8780 H 30.162305931384665 95.90763853106313 1.1513236910150226 H 0.0 **** 0.06
8781 C 59.73266606921143 104.44312141099178 31.396933719999623 C 0.0 **** -0.24
8782 H 59.15258904040263 105.00942987976362 30.668557122987295 H 0.0 **** 0.06
8783 H 60.31646836981915 105.13017942474946 32.009868720060894 H 0.0 **** 0.06
8784 H 60.40434885954505 103.7616536629397 30.875054369792025 H 0.0 **** 0.06
8785 H 59.05811811829466 103.87095688809077 32.033163944216625 H 0.0 **** 0.06
8786 C 51.14170198374102 90.3093339584486 106.9202562315246 C 0.0 **** -0.24
8787 H 51.26518181713114 89.34748275026712 106.42251722784283 H 0.0 **** 0.06
8788 H 51.98503919546187 90.95498139542403 106.67706533024847 H 0.0 **** 0.06
8789 H 51.099353034823196 90.15649920088612 107.99847198460452 H 0.0 **** 0.06
8790 H 50.21688052578811 90.77616446176503 106.58297649762329 H 0.0 **** 0.06
8791 C 89.25861436649339 44.77539403239182 8.651113974586792 C 0.0 **** -0.24
8792 H 88.18404054842546 44.95515581174404 8.691126102336398 H 0.0 **** 0.06
8793 H 89.6194346866728 44.50817441828194 9.64478522422445 H 0.0 **** 0.06
8794 H 89.76559643926123 45.67830327935899 8.311168119930443 H 0.0 **** 0.06
8795 H 89.46409577266388 43.9600140674875 7.957951654182551 H 0.0 **** 0.06
8796 C 37.14837691526984 103.96925940249781 31.386010541027588 C 0.0 **** -0.24
8797 H 36.98771109187398 103.67211016151413 32.42248483733641 H 0.0 **** 0.06
8798 H 37.354423604723216 105.03929970160158 31.343200327308068 H 0.0 **** 0.06
8799 H 36.25554131823952 103.74733476565507 30.802176544999554 H 0.0 **** 0.06
8800 H 37.996648498614014 103.41898275532822 30.978384382291665 H 0.0 **** 0.06
8801 C 120.03159448415921 13.536324673939863 102.90265831716371 C 0.0 **** -0.24
8802 H 121.0039730051174 14.01359649125606 102.784511345134 H 0.0 **** 0.06
8803 H 119.42217795181847 14.120243114753155 103.59351210678363 H 0.0 **** 0.06
8804 H 120.16650087133849 12.529924838784815 103.29701308326514 H 0.0 **** 0.06
8805 H 119.53340051483481 13.48332655279679 101.9342998443814 H 0.0 **** 0.06
8806 C 91.60116497851877 75.29353786262254 58.90858542254159 C 0.0 **** -0.24
8807 H 91.45209182401135 75.20740262774751 59.98467139366369 H 0.0 **** 0.06
8808 H 90.63298862695316 75.37102779462086 58.413539959351624 H 0.0 **** 0.06
8809 H 92.12683642040895 74.410422157749 58.543220665246054 H 0.0 **** 0.06
8810 H 92.1926051509204 76.18306699607098 58.69291079907498 H 0.0 **** 0.06
8811 C 57.81337935433248 75.08600786073805 93.53595484159203 C 0.0 **** -0.24
8812 H 58.06824031583585 74.61044821021363 92.58771850054356 H 0.0 **** 0.06
8813 H 58.58256413905667 74.85976257088146 94.27386196474478 H 0.0 **** 0.06
8814 H 56.851961882905755 74.70852844157832 93.88419737491432 H 0.0 **** 0.06
8815 H 57.751027836283185 76.16577537218325 93.39477188058419 H 0.0 **** 0.06
8816 C 39.824958266655756 14.348499285516596 97.60733554297846 C 0.0 **** -0.24
8817 H 39.47924887996126 13.450031634438801 98.1176922614558 H 0.0 **** 0.06
8818 H 39.0869283756206 14.649647160627865 96.86220326921503 H 0.0 **** 0.06
8819 H 40.77590697355126 14.144674875695216 97.11554262518877 H 0.0 **** 0.06
8820 H 39.95563628880436 15.150838632504417 98.33357377109508 H 0.0 **** 0.06
8821 C 52.94729437327143 0.09585962012784321 0.7338414688898567 C 0.0 **** -0.24
8822 H 53.159298315191876 1.1599837692885746 0.6323071112544891 H 0.0 **** 0.06
8823 H 52.55524881983146 -0.1033234915658987 1.7311816810874614 H 0.0 **** 0.06
8824 H 53.86619183022617 -0.47290951045096286 0.5845217322480991 H 0.0 **** 0.06
8825 H 52.211505971824664 -0.2002872008097487 -0.013413228693710977 H 0.0 **** 0.06
8826 C 65.46390532848471 76.01801739149809 8.944926908022836 C 0.0 **** -0.24
8827 H 65.75583975803352 75.41874608139253 9.80748956054569 H 0.0 **** 0.06
8828 H 66.3292121536881 76.17119417669903 8.300562832288819 H 0.0 **** 0.06
8829 H 65.08775549650517 76.98256814821156 9.284534357010784 H 0.0 **** 0.06
8830 H 64.68430586203618 75.49818323295275 8.389544916251992 H 0.0 **** 0.06
8831 C 38.36522269116699 77.22255726633904 70.86094289131529 C 0.0 **** -0.24
8832 H 38.16053005041968 77.10561045825534 71.92468225844371 H 0.0 **** 0.06
8833 H 37.47079488776137 77.58944286978644 70.35712049546285 H 0.0 **** 0.06
8834 H 38.65014870811066 76.25860004406957 70.43846116235932 H 0.0 **** 0.06
8835 H 39.17811158719934 77.93479692361242 70.72314454397821 H 0.0 **** 0.06
8836 C 97.58749486934312 116.39964439185383 71.63618709085182 C 0.0 **** -0.24
8837 H 98.52052713703279 116.38063824209166 72.19908109844948 H 0.0 **** 0.06
8838 H 96.85865946357205 115.75030499300783 72.12070375465973 H 0.0 **** 0.06
8839 H 97.76973548214335 116.04855529634727 70.6201339543521 H 0.0 **** 0.06
8840 H 97.20268842873651 117.41877363972952 71.60433293954483 H 0.0 **** 0.06
8841 C 54.838308486566454 56.051953502690544 45.08767324093712 C 0.0 **** -0.24
8842 H 55.30095156661242 55.066897095609285 45.02249338624047 H 0.0 **** 0.06
8843 H 54.86322276100935 56.53081816718454 44.10847148532005 H 0.0 **** 0.06
8844 H 55.387709999483285 56.662765534561636 45.804849532878315 H 0.0 **** 0.06
8845 H 53.80489439466148 55.94736256985818 45.41553767118135 H 0.0 **** 0.06
8846 C 55.999774165182764 93.81877781875369 31.61052077016359 C 0.0 **** -0.24
8847 H 56.17593177024883 93.63375265943128 30.551133547322422 H 0.0 **** 0.06
8848 H 56.206859650104754 92.91118675589982 32.17750506648446 H 0.0 **** 0.06
8849 H 54.95962094835611 94.11147536210197 31.75944241224596 H 0.0 **** 0.06
8850 H 56.65523887525129 94.61948543712779 31.95248923502669 H 0.0 **** 0.06
8851 C 100.3527897886637 7.829570644761844 103.78832772910002 C 0.0 **** -0.24
8852 H 100.62830503599662 6.792963964717927 103.98400119318853 H 0.0 **** 0.06
8853 H 100.40736186043 8.401124948457095 104.71588085536922 H 0.0 **** 0.06
8854 H 99.33673056248267 7.868470004365577 103.39652729702192 H 0.0 **** 0.06
8855 H 101.04085565691346 8.256542422294018 103.05861778837692 H 0.0 **** 0.06
8856 C 89.2604595042265 58.4139456125414 19.81024783889254 C 0.0 **** -0.24
8857 H 88.22498751143974 58.516995869226434 20.13520713412221 H 0.0 **** 0.06
8858 H 89.7781269004183 57.71294493321267 20.465761910474903 H 0.0 **** 0.06
8859 H 89.75281601545015 59.3846917046917 19.854249446136418 H 0.0 **** 0.06
8860 H 89.2836566047105 58.04056419634756 18.786541175862 H 0.0 **** 0.06
8861 C 11.035972735768638 49.565734559917985 95.1383265085791 C 0.0 **** -0.24
8862 H 9.949802687668893 49.488590126600855 95.09383527883597 H 0.0 **** 0.06
8863 H 11.454444300430481 48.621575365710044 95.48770899764554 H 0.0 **** 0.06
8864 H 11.314724145058818 50.36344919669136 95.82752545790049 H 0.0 **** 0.06
8865 H 11.424992611741715 49.79043949162485 94.1455590027229 H 0.0 **** 0.06
8866 C 88.22219501519368 96.29061075388756 51.73763799298928 C 0.0 **** -0.24
8867 H 87.8521149760789 96.88026008554482 50.89860367397495 H 0.0 **** 0.06
8868 H 88.77123954051757 95.427806237358 51.36016531937997 H 0.0 **** 0.06
8869 H 87.38086358453546 95.95136217873363 52.34108799113221 H 0.0 **** 0.06
8870 H 88.88349248919047 96.90480770792584 52.34878681203642 H 0.0 **** 0.06
8871 C 69.416633399662 7.876564667131447 98.28709614526102 C 0.0 **** -0.24
8872 H 69.55517019005154 6.794922221036302 98.29716437173079 H 0.0 **** 0.06
8873 H 68.47952685758898 8.126869759765498 98.78513114473535 H 0.0 **** 0.06
8874 H 69.38704960329721 8.228760208098038 97.25603881265553 H 0.0 **** 0.06
8875 H 70.24598956259953 8.353177405443603 98.81044767676815 H 0.0 **** 0.06
8876 C 4.61315276170447 10.896139262992762 3.3936878789171487 C 0.0 **** -0.24
8877 H 3.525250817917737 10.886399466348479 3.4538424997860773 H 0.0 **** 0.06
8878 H 4.981501500716007 11.889274332794855 3.6543872694697086 H 0.0 **** 0.06
8879 H 4.922567448218871 10.64867159199909 2.3782971035080323 H 0.0 **** 0.06
8880 H 5.022850095769883 10.162596429074455 4.087880301655417 H 0.0 **** 0.06
8881 C 100.19155760583058 77.72710288418423 118.61655119683162 C 0.0 **** -0.24
8882 H 99.44249252925928 78.5187099670674 118.64343774716781 H 0.0 **** 0.06
8883 H 101.16244601137177 78.1350187865765 118.8982309160047 H 0.0 **** 0.06
8884 H 100.24855860376141 77.31522862181708 117.6090217422055 H 0.0 **** 0.06
8885 H 99.91166439859447 76.93823745112473 119.3149001521676 H 0.0 **** 0.06
8886 C 23.778282190918304 117.51411381647365 99.74780420396365 C 0.0 **** -0.24
8887 H 23.679224489161406 118.15408087701557 98.87114985325616 H 0.0 **** 0.06
8888 H 22.923740943855663 117.66588982705827 100.40675670224886 H 0.0 **** 0.06
8889 H 24.69727475522685 117.76449674310885 100.27858874996122 H 0.0 **** 0.06
8890 H 23.813297397564945 116.47102171385897 99.43301865146157 H 0.0 **** 0.06
8891 C 94.19175813961499 36.43724550910501 48.041966252634325 C 0.0 **** -0.24
8892 H 93.20144386164071 36.777524227069975 48.342823518138005 H 0.0 **** 0.06
8893 H 94.55826369972857 37.060728147532174 47.225781062226304 H 0.0 **** 0.06
8894 H 94.1332212838297 35.40020228226218 47.709299765010314 H 0.0 **** 0.06
8895 H 94.87386333118144 36.50865773661128 48.8887577811164 H 0.0 **** 0.06
8896 C 45.20301848828411 56.843655183727435 57.27446443980424 C 0.0 **** -0.24
8897 H 45.442761432285685 57.44784346209309 58.150029989429534 H 0.0 **** 0.06
8898 H 44.58228186451157 57.42372482335696 56.59173874419208 H 0.0 **** 0.06
8899 H 44.6628684354036 55.94971218205791 57.586693482150984 H 0.0 **** 0.06
8900 H 46.124706289829646 56.55362538259138 56.77066943892351 H 0.0 **** 0.06
8901 C 80.61307668004065 43.20173451045824 95.6694367418792 C 0.0 **** -0.24
8902 H 80.85475924681472 43.61483902169337 96.6488826792812 H 0.0 **** 0.06
8903 H 81.35729446061154 43.52926628035283 94.94277449322294 H 0.0 **** 0.06
8904 H 79.62690326687195 43.54943734188039 95.3614353128151 H 0.0 **** 0.06
8905 H 80.61334974586472 42.11339539790643 95.72465448219765 H 0.0 **** 0.06
8906 C 91.91904501739876 100.94860960251953 63.951538981058434 C 0.0 **** -0.24
8907 H 92.6082691831358 101.78280748086974 63.81844838199646 H 0.0 **** 0.06
8908 H 91.33745862290633 101.10079357889143 64.86104074558597 H 0.0 **** 0.06
8909 H 92.48414767305627 100.01992975002511 64.03199305515597 H 0.0 **** 0.06
8910 H 91.24740864215477 100.89222478250127 63.09488884135743 H 0.0 **** 0.06
8911 C 57.497031841169594 23.45332768466608 112.19692758010243 C 0.0 **** -0.24
8912 H 56.7792647223984 23.203563781259916 111.41473287472539 H 0.0 **** 0.06
8913 H 57.78788196626879 24.499692400250524 112.10162678771994 H 0.0 **** 0.06
8914 H 58.37767806178355 22.819725186780815 112.0963185209182 H 0.0 **** 0.06
8915 H 57.040993722412615 23.289603548079313 113.17325937041026 H 0.0 **** 0.06
8916 C 60.07040834517888 93.44759892528072 34.81544461267992 C 0.0 **** -0.24
8917 H 60.91975898710293 92.91984092797026 34.38157122529372 H 0.0 **** 0.06
8918 H 60.3341368260815 94.49281331474046 34.97311905544289 H 0.0 **** 0.06
8919 H 59.80845623007074 92.99000357387129 35.76951417079013 H 0.0 **** 0.06
8920 H 59.2191569162542 93.38475330417663 34.13729596974466 H 0.0 **** 0.06
8921 C 103.67581181876699 63.19029440309337 118.65926718211992 C 0.0 **** -0.24
8922 H 104.5111465719875 63.417034155332466 119.32187571804512 H 0.0 **** 0.06
8923 H 103.43676690178063 64.07039452018003 118.06188249226953 H 0.0 **** 0.06
8924 H 102.80733039613963 62.90754194576616 119.25457485320372 H 0.0 **** 0.06
8925 H 103.94922039031309 62.36647655873832 118.00029979509475 H 0.0 **** 0.06
8926 C 55.746739121378994 15.909509012654059 116.4598644953945 C 0.0 **** -0.24
8927 H 55.343392397168316 16.67419881475839 117.123695088374 H 0.0 **** 0.06
8928 H 56.793893882554016 15.732228962730613 116.70340047404218 H 0.0 **** 0.06
8929 H 55.66621319859013 16.246723373380046 115.42573574892293 H 0.0 **** 0.06
8930 H 55.18203078949131 14.985988942519928 116.58530482648607 H 0.0 **** 0.06
8931 C 43.295340374876304 13.071347979638318 40.80190452419282 C 0.0 **** -0.24
8932 H 43.63054707488487 12.165566975195333 40.29556923087857 H 0.0 **** 0.06
8933 H 44.15962170339873 13.68072388764159 41.06486817546934 H 0.0 **** 0.06
8934 H 42.75267251701766 12.800433390052063 41.70735468251374 H 0.0 **** 0.06
8935 H 42.63925148277545 13.635486376701238 40.13923843283169 H 0.0 **** 0.06
8936 C 82.96281064331748 35.21607530518597 44.826495283367194 C 0.0 **** -0.24
8937 H 83.93069186698122 35.712885579124475 44.77281541471167 H 0.0 **** 0.06
8938 H 83.02789126544323 34.36386324593613 45.50348441731607 H 0.0 **** 0.06
8939 H 82.67629041342482 34.87002936830473 43.83329816972157 H 0.0 **** 0.06
8940 H 82.21428628924232 35.917553366972015 45.19556976863804 H 0.0 **** 0.06
8941 C 79.70225636983622 80.1144836007623 35.425060155968225 C 0.0 **** -0.24
8942 H 79.42640908636523 80.56928341954597 36.37643575332464 H 0.0 **** 0.06
8943 H 78.84506359916631 79.58000053364489 35.0155378278732 H 0.0 **** 0.06
8944 H 80.52488830892054 79.41662338842414 35.58126498178194 H 0.0 **** 0.06
8945 H 80.0135790543116 80.89223803104395 34.727347184442635 H 0.0 **** 0.06
8946 C 105.4494657191328 38.385625834961445 102.39601777481644 C 0.0 **** -0.24
8947 H 105.01014601030712 37.40371641198914 102.57364727941837 H 0.0 **** 0.06
8948 H 106.43085828764112 38.26738322181265 101.93541001854089 H 0.0 **** 0.06
8949 H 105.5530056190546 38.91380790909261 103.34425580218144 H 0.0 **** 0.06
8950 H 104.80250793312487 38.95719023502775 101.73092089425887 H 0.0 **** 0.06
8951 C 84.82150372857944 23.66174167064132 93.99154873555068 C 0.0 **** -0.24
8952 H 84.54224986884842 23.206041067888805 94.94165314299786 H 0.0 **** 0.06
8953 H 84.04620901851294 23.46261124460321 93.25221641984433 H 0.0 **** 0.06
8954 H 85.7666294977594 23.240809648848014 93.6504672655968 H 0.0 **** 0.06
8955 H 84.92948698072158 24.73797476673127 94.12378349460548 H 0.0 **** 0.06
8956 C 116.31784062737479 35.308663788682644 99.23342421166524 C 0.0 **** -0.24
8957 H 116.6237076421209 36.2120382505702 98.70638906932498 H 0.0 **** 0.06
8958 H 116.07880762828769 34.5289314715701 98.50969158633677 H 0.0 **** 0.06
8959 H 115.4376813759446 35.5229365469095 99.84063016728919 H 0.0 **** 0.06
8960 H 117.12954689668794 34.97120440508036 99.8774002901365 H 0.0 **** 0.06
8961 C 30.032263651409778 84.9973924684688 110.62873099303667 C 0.0 **** -0.24
8962 H 30.939038804388133 85.12086573664246 110.03634571294566 H 0.0 **** 0.06
8963 H 29.717264040848278 85.96600080808574 111.0164270575591 H 0.0 **** 0.06
8964 H 30.23084643930946 84.31999329828565 111.46022751024924 H 0.0 **** 0.06
8965 H 29.242951689129853 84.5820972042637 110.00265147488946 H 0.0 **** 0.06
8966 C 21.644946748084976 49.001714132389345 114.44275875383426 C 0.0 **** -0.24
8967 H 21.743612562540513 48.87360041782531 115.52113861043705 H 0.0 **** 0.06
8968 H 21.941572971251432 50.01514508461166 114.16962544751573 H 0.0 **** 0.06
8969 H 20.608484724674437 48.83484404961944 114.15045078696866 H 0.0 **** 0.06
8970 H 22.287151081963422 48.284901725731274 113.93132285342554 H 0.0 **** 0.06
8971 C 57.139967683892955 90.07061257701145 61.42278020557233 C 0.0 **** -0.24
8972 H 56.229105240175706 89.6081503933255 61.803297589353456 H 0.0 **** 0.06
8973 H 57.73883954624599 89.32030354424222 60.90475213628006 H 0.0 **** 0.06
8974 H 57.712407780019625 90.48318748405617 62.253597522991306 H 0.0 **** 0.06
8975 H 56.87951816913067 90.87080888642186 60.7294735736645 H 0.0 **** 0.06
8976 C 33.16180256408245 122.0934466626477 84.25057201107677 C 0.0 **** -0.24
8977 H 32.34845815120511 121.41825697766915 84.51278905246193 H 0.0 **** 0.06
8978 H 33.82577702152052 121.6034377829618 83.53748686717847 H 0.0 **** 0.06
8979 H 33.721344639488485 122.35396484364024 85.14889882452212 H 0.0 **** 0.06
8980 H 32.752264943166374 122.99959953486645 83.80245804796317 H 0.0 **** 0.06
8981 C 1.8531257900520046 29.11478866418804 7.905855607300637 C 0.0 **** -0.24
8982 H 2.6519669355453175 29.710702768719216 7.465155824451074 H 0.0 **** 0.06
8983 H 1.0847715017755775 28.924837196124628 7.155576774438131 H 0.0 **** 0.06
8984 H 1.4164160551045057 29.656175506930197 8.744259416319693 H 0.0 **** 0.06
8985 H 2.2601682435475396 28.166043556291612 8.256887431671146 H 0.0 **** 0.06
8986 C 44.74765527588451 25.98751407694874 44.04122268660416 C 0.0 **** -0.24
8987 H 44.32249144501007 25.99517617172097 43.03742980149707 H 0.0 **** 0.06
8988 H 44.04404686491313 25.51698048132448 44.72922673013068 H 0.0 **** 0.06
8989 H 44.94104911217545 27.011198601281308 44.36139284956015 H 0.0 **** 0.06
8990 H 45.68179812440681 25.425697510918837 44.03527083045233 H 0.0 **** 0.06
8991 C 23.091364698905466 33.13506196649092 49.2150472438089 C 0.0 **** -0.24
8992 H 22.58015308471107 33.30110789307692 50.16331438223878 H 0.0 **** 0.06
8993 H 23.11905556813639 34.06582360425325 48.6485102939738 H 0.0 **** 0.06
8994 H 22.556854135344395 32.3763567613951 48.64278328519676 H 0.0 **** 0.06
8995 H 24.10917230340675 32.795619822991654 49.40665577038891 H 0.0 **** 0.06
8996 C 28.16558324832897 69.45901402215753 114.2475657757355 C 0.0 **** -0.24
8997 H 28.563630998396917 70.47341963556528 114.279036217147 H 0.0 **** 0.06
8998 H 28.984927939407754 68.7510920599305 114.12048339680166 H 0.0 **** 0.06
8999 H 27.472397574050973 69.36703458694575 113.41181132770842 H 0.0 **** 0.06
9000 H 27.641655040038785 69.24559931140715 115.17978977123235 H 0.0 **** 0.06
9001 C 49.95814003019399 2.521737668280691 17.07603294431779 C 0.0 **** -0.24
9002 H 49.33263486303713 2.4391079832216764 17.964768979860118 H 0.0 **** 0.06
9003 H 50.56403640377346 3.4259783674479927 17.14162658047693 H 0.0 **** 0.06
9004 H 49.32606017955425 2.570338665561918 16.18931250482658 H 0.0 **** 0.06
9005 H 50.611049862315895 1.6512513126934145 17.0090821547303 H 0.0 **** 0.06
9006 C 26.754183644775992 14.644278558790564 12.092135465591866 C 0.0 **** -0.24
9007 H 26.6902368815704 13.74167240093421 12.699687976511854 H 0.0 **** 0.06
9008 H 25.748644508792353 14.98465349466154 11.839883177382518 H 0.0 **** 0.06
9009 H 27.304403664758922 14.427855550065185 11.17619651372138 H 0.0 **** 0.06
9010 H 27.272033058003217 15.422765023021405 12.651791522107345 H 0.0 **** 0.06
9011 C 67.65690842123252 67.73368887761197 112.69102971897911 C 0.0 **** -0.24
9012 H 67.20676098531851 66.90009698957573 112.15267301881957 H 0.0 **** 0.06
9013 H 67.72092786475184 67.48874102834455 113.75135712465934 H 0.0 **** 0.06
9014 H 67.0441164194726 68.62486351595425 112.55975218480589 H 0.0 **** 0.06
9015 H 68.65795164584773 67.91998227918171 112.30092279935785 H 0.0 **** 0.06
9016 C 97.61241610088061 74.24292897178753 37.02671586513955 C 0.0 **** -0.24
9017 H 98.65832446874052 74.54080809059522 36.95970248912231 H 0.0 **** 0.06
9018 H 96.99210155200859 75.12666377574973 37.17331306635751 H 0.0 **** 0.06
9019 H 97.48168331980105 73.56253145081001 37.868119618625315 H 0.0 **** 0.06
9020 H 97.31808141527017 73.74117527953129 36.104168017500484 H 0.0 **** 0.06
9021 C 80.83237231710689 41.242463099473646 92.58878804510701 C 0.0 **** -0.24
9022 H 81.83138611542614 41.15994685803064 93.016738536312 H 0.0 **** 0.06
9023 H 80.29019704189525 42.04893318806141 93.08340925991621 H 0.0 **** 0.06
9024 H 80.29737610806052 40.304098308382585 92.73192663584123 H 0.0 **** 0.06
9025 H 80.91053000304555 41.45687404341996 91.52307774835867 H 0.0 **** 0.06
9026 C 77.29688532411808 42.17879485140861 36.8283535210397 C 0.0 **** -0.24
9027 H 76.90758593260992 41.47784839888436 37.56711072988857 H 0.0 **** 0.06
9028 H 78.38489984376844 42.21034317669256 36.895816883049775 H 0.0 **** 0.06
9029 H 76.89191793981871 43.17234152099513 37.020659430554645 H 0.0 **** 0.06
9030 H 77.00331776806229 41.853794241987316 35.82933554323594 H 0.0 **** 0.06
9031 C 15.279595704926635 9.3978137056707 6.177737004730162 C 0.0 **** -0.24
9032 H 14.939024473429441 8.365219371372774 6.098899667094116 H 0.0 **** 0.06
9033 H 16.133817316596833 9.447723878620081 6.85417741897038 H 0.0 **** 0.06
9034 H 14.471346264309688 10.018056647049349 6.565525192030677 H 0.0 **** 0.06
9035 H 15.574505713324555 9.759305859842215 5.192397132873452 H 0.0 **** 0.06
9036 C 102.19915222863483 62.25796181613371 52.108701901337554 C 0.0 **** -0.24
9037 H 101.54263447677525 62.93591328089362 52.654323010764756 H 0.0 **** 0.06
9038 H 101.88862531592912 61.22885835473718 52.28952843594362 H 0.0 **** 0.06
9039 H 103.2253501632693 62.39380267158621 52.45050623818224 H 0.0 **** 0.06
9040 H 102.1389792372058 62.47495290184124 51.043121730152194 H 0.0 **** 0.06
9041 C 117.72857540983495 16.66709992462927 119.50746814610352 C 0.0 **** -0.24
9042 H 117.19303437806195 15.719213703760754 119.5586798075662 H 0.0 **** 0.06
9043 H 117.34663162086088 17.255456186017224 118.67283768208503 H 0.0 **** 0.06
9044 H 118.79127259768086 16.476682737107545 119.36105759143842 H 0.0 **** 0.06
9045 H 117.58195073318933 17.217114286413775 120.43726627443974 H 0.0 **** 0.06
9046 C 60.02036892123298 2.543651670958411 89.93407330043522 C 0.0 **** -0.24
9047 H 60.8306357830164 3.0675088474622925 89.42718042306834 H 0.0 **** 0.06
9048 H 59.11940502783995 3.156464024533733 89.90583840108329 H 0.0 **** 0.06
9049 H 60.301809929203195 2.357302444218874 90.97019540686401 H 0.0 **** 0.06
9050 H 59.831549834100365 1.5951950944128583 89.43172922080018 H 0.0 **** 0.06
9051 C 71.3820955147832 47.370110400047125 16.036996148596558 C 0.0 **** -0.24
9052 H 71.50716068670783 47.208328697089264 14.966831462740686 H 0.0 **** 0.06
9053 H 70.85739723200686 46.51935722846743 16.472981173295494 H 0.0 **** 0.06
9054 H 70.80341706092571 48.27841966451986 16.20294981409137 H 0.0 **** 0.06
9055 H 72.36130221745691 47.47209421132102 16.505638557733192 H 0.0 **** 0.06
9056 C 11.555886594352899 90.41910629191858 110.75679099963764 C 0.0 **** -0.24
9057 H 10.907930291549235 89.54255829688037 110.77177059201935 H 0.0 **** 0.06
9058 H 10.982140023937859 91.29974421195885 111.04676322974689 H 0.0 **** 0.06
9059 H 11.954742922255434 90.55890099882816 109.75250461138896 H 0.0 **** 0.06
9060 H 12.378270690549755 90.27542423884393 111.45698879090975 H 0.0 **** 0.06
9061 C 1.7696073679304334 71.79382846415365 44.14079156054862 C 0.0 **** -0.24
9062 H 2.778261424238309 71.48705831511975 44.418635459307495 H 0.0 **** 0.06
9063 H 1.1287156622796601 71.77887103148026 45.022590432197774 H 0.0 **** 0.06
9064 H 1.3746100518269486 71.1080475010375 43.39076771968723 H 0.0 **** 0.06
9065 H 1.7984737321330613 72.8036974693969 43.729843224619344 H 0.0 **** 0.06
9066 C 115.75774234269255 106.56302558197376 50.70353758093077 C 0.0 **** -0.24
9067 H 116.53371998119641 105.85401897254155 50.41490552529115 H 0.0 **** 0.06
9068 H 115.9409859620019 106.90553827687654 51.7218484101426 H 0.0 **** 0.06
9069 H 114.7835784602895 106.07654806041245 50.65289681761334 H 0.0 **** 0.06
9070 H 115.77455525372544 107.41539480990775 50.02412594438336 H 0.0 **** 0.06
9071 C 82.03920536374778 42.84815044059164 14.679299661779254 C 0.0 **** -0.24
9072 H 81.6780732154123 42.95419311314788 13.656270013903423 H 0.0 **** 0.06
9073 H 81.4146797800993 43.442064351302776 15.347993382523924 H 0.0 **** 0.06
9074 H 83.06989201431992 43.19721548115294 14.73913054677746 H 0.0 **** 0.06
9075 H 81.99284277290724 41.799529114630644 14.97405207259527 H 0.0 **** 0.06
9076 C 32.61505089438589 89.17404978596645 84.61994397083362 C 0.0 **** -0.24
9077 H 31.9504466559614 89.98556059739013 84.32228883517627 H 0.0 **** 0.06
9078 H 33.63926650350044 89.42377825066441 84.34284252246556 H 0.0 **** 0.06
9079 H 32.315587701564596 88.25589505084582 84.11503429495542 H 0.0 **** 0.06
9080 H 32.55390156363177 89.0319708739658 85.69861696833442 H 0.0 **** 0.06
9081 C 28.79330617379445 21.255615328927803 53.344056793270624 C 0.0 **** -0.24
9082 H 29.10285800264885 22.286877280305816 53.17296439281415 H 0.0 **** 0.06
9083 H 28.03043096167523 20.98019877450116 52.61513476707279 H 0.0 **** 0.06
9084 H 28.3867210875975 21.16077422712837 54.35017894188002 H 0.0 **** 0.06
9085 H 29.654301640145192 20.59561528177278 53.235997083175505 H 0.0 **** 0.06
9086 C 40.678633926963776 97.94331746468453 51.76907300467492 C 0.0 **** -0.24
9087 H 40.40033051909001 98.93006817347833 51.40075478923641 H 0.0 **** 0.06
9088 H 39.846519885707565 97.25405393698878 51.624971825643655 H 0.0 **** 0.06
9089 H 40.91844087532856 98.00668156780256 52.83067263264211 H 0.0 **** 0.06
9090 H 41.54893582814513 97.58289062832381 51.22120605775709 H 0.0 **** 0.06
9091 C 27.91985241584871 74.57990892875586 73.52916427077736 C 0.0 **** -0.24
9092 H 27.935261173205134 75.63594310048308 73.79965004787047 H 0.0 **** 0.06
9093 H 26.8975176433988 74.20450763644823 73.59094381893323 H 0.0 **** 0.06
9094 H 28.555389202611963 74.02002749378465 74.21468294773939 H 0.0 **** 0.06
9095 H 28.290137025033687 74.46128935941414 72.51089523346664 H 0.0 **** 0.06
9096 C 15.158781956333144 32.899218509459104 68.99171342366392 C 0.0 **** -0.24
9097 H 15.629396643737437 32.84057270821995 69.97265305619291 H 0.0 **** 0.06
9098 H 14.134874883662803 32.53016234325122 69.05819674678611 H 0.0 **** 0.06
9099 H 15.719911790558172 32.29068248187838 68.28240365172323 H 0.0 **** 0.06
9100 H 15.151373562667857 33.93569659859662 68.65447105683222 H 0.0 **** 0.06
9101 C 113.42987588716818 101.98038831395107 55.27235855204603 C 0.0 **** -0.24
9102 H 113.84751528377609 101.49188375215422 56.153256280968264 H 0.0 **** 0.06
9103 H 112.35489034164911 102.10336789124702 55.40129337005055 H 0.0 **** 0.06
9104 H 113.6228758069283 101.36666877081376 54.39161138814413 H 0.0 **** 0.06
9105 H 113.8956253289542 102.95685184691615 55.14381871421162 H 0.0 **** 0.06
9106 C 82.827664236202 13.867230193073734 97.91263588207471 C 0.0 **** -0.24
9107 H 82.69046178573032 13.10265488433081 97.1483661777907 H 0.0 **** 0.06
9108 H 83.89203677763737 13.994593859937304 98.1108674018385 H 0.0 **** 0.06
9109 H 82.32095184145555 13.55929041659627 98.82788384672818 H 0.0 **** 0.06
9110 H 82.40621709030643 14.809558661725415 97.56319709264443 H 0.0 **** 0.06
9111 C 16.08618375113555 7.168010089961925 108.14493844531498 C 0.0 **** -0.24
9112 H 15.478792474849541 6.26410785366906 108.1877601319193 H 0.0 **** 0.06
9113 H 16.23797910804143 7.551369157578733 109.15408320174018 H 0.0 **** 0.06
9114 H 15.57713422627026 7.919842611297568 107.54285580765568 H 0.0 **** 0.06
9115 H 17.052159884416866 6.935615475578288 107.69496615152536 H 0.0 **** 0.06
9116 C 77.86321016404503 112.02183801174377 105.7401423402236 C 0.0 **** -0.24
9117 H 78.22157569707099 111.08993970136123 106.17864190788424 H 0.0 **** 0.06
9118 H 77.09531180768704 112.45313922536755 106.38252191631636 H 0.0 **** 0.06
9119 H 77.44254206191806 111.82089695954295 104.75475095429272 H 0.0 **** 0.06
9120 H 78.69356355439163 112.72169778422997 105.64505454972425 H 0.0 **** 0.06
9121 C 78.49409523422327 27.697529565164132 22.3593187685276 C 0.0 **** -0.24
9122 H 79.31909202258274 26.995475760785098 22.47579978177194 H 0.0 **** 0.06
9123 H 78.66797056177501 28.57110772995918 22.988084005955727 H 0.0 **** 0.06
9124 H 77.56285561407569 27.214921801982996 22.65745413373058 H 0.0 **** 0.06
9125 H 78.42447879307795 28.007803275920764 21.317124036618694 H 0.0 **** 0.06
9126 C 104.12451108112089 99.11836442054681 105.5550577305948 C 0.0 **** -0.24
9127 H 104.54262823837337 98.25967466547468 106.07958135401844 H 0.0 **** 0.06
9128 H 103.05154100004711 99.17091584087558 105.74350603234754 H 0.0 **** 0.06
9129 H 104.30105049865438 99.01178754121554 104.48456889249675 H 0.0 **** 0.06
9130 H 104.60155958025507 100.03052927754669 105.91288605211932 H 0.0 **** 0.06
9131 C 35.06069767899069 104.72727038150151 13.993721671779099 C 0.0 **** -0.24
9132 H 35.84674070061811 104.83532466693703 13.24632300239898 H 0.0 **** 0.06
9133 H 35.445217248923996 105.02327582489829 14.970173233875983 H 0.0 **** 0.06
9134 H 34.73717348242863 103.68701234698506 14.031397284014531 H 0.0 **** 0.06
9135 H 34.21612269381683 105.36178403652633 13.727299867257557 H 0.0 **** 0.06
9136 C 94.95497443446442 14.662610897752074 113.39093968929978 C 0.0 **** -0.24
9137 H 94.73740915935761 15.730477005363014 113.41917932226684 H 0.0 **** 0.06
9138 H 94.04311769715159 14.112298644015809 113.15677969734608 H 0.0 **** 0.06
9139 H 95.333434197059 14.343841165785662 114.36209579876291 H 0.0 **** 0.06
9140 H 95.7058476742869 14.465805164105873 112.62542415362998 H 0.0 **** 0.06
9141 C 105.40223164250625 22.87556579020145 107.128198880317 C 0.0 **** -0.24
9142 H 105.10878763391304 22.36605169293287 106.21028758981103 H 0.0 **** 0.06
9143 H 105.93804734752285 22.181116101786216 107.7744629356161 H 0.0 **** 0.06
9144 H 104.5114008865877 23.238448163958083 107.642662852151 H 0.0 **** 0.06
9145 H 106.04886735649688 23.718607516582807 106.88446944236253 H 0.0 **** 0.06
9146 C 80.17374086709813 49.602258946916805 61.2572420884963 C 0.0 **** -0.24
9147 H 79.1815208135283 49.19819197286172 61.05861599265609 H 0.0 **** 0.06
9148 H 80.78917379860457 49.51260016996255 60.36228079315748 H 0.0 **** 0.06
9149 H 80.63525640399544 49.04710958236996 62.073200211574886 H 0.0 **** 0.06
9150 H 80.08839006221419 50.652511113763715 61.535717835985054 H 0.0 **** 0.06
9151 C 108.25634406374724 1.384199152910023 113.58686093028558 C 0.0 **** -0.24
9152 H 109.18651617627987 1.762894214396745 113.16199615373392 H 0.0 **** 0.06
9153 H 108.46548156689991 0.49986559581035017 114.18863396329573 H 0.0 **** 0.06
9154 H 107.56971440740202 1.122604621817283 112.78237843279436 H 0.0 **** 0.06
9155 H 107.80509134064565 2.153264753744164 114.21521299055058 H 0.0 **** 0.06
9156 C 92.86864636193317 54.324687382192224 52.61390818370131 C 0.0 **** -0.24
9157 H 91.89045102591808 54.104384336651435 52.18604769010784 H 0.0 **** 0.06
9158 H 92.89751889653908 55.36451636942178 52.93966298149883 H 0.0 **** 0.06
9159 H 93.64003263768629 54.15693492111998 51.86256975703287 H 0.0 **** 0.06
9160 H 93.04588825341665 53.67079091081948 53.46835765565169 H 0.0 **** 0.06
9161 C 45.17964353673741 4.993759310335108 77.85502069647995 C 0.0 **** -0.24
9162 H 45.196412112745925 5.9512794685743415 77.33498313953109 H 0.0 **** 0.06
9163 H 44.28960763272527 4.936960631281011 78.48219943050276 H 0.0 **** 0.06
9164 H 46.07021707570249 4.902651501253374 78.47677407378492 H 0.0 **** 0.06
9165 H 45.162297723514854 4.18477775767353 77.1253522462014 H 0.0 **** 0.06
9166 C 49.97814659172235 15.659492164350638 64.38004863607446 C 0.0 **** -0.24
9167 H 50.49886967910561 15.971759931611416 65.28521349978669 H 0.0 **** 0.06
9168 H 49.9906009196454 14.571500601095352 64.31115446847951 H 0.0 **** 0.06
9169 H 50.47616779633228 16.085298315179898 63.5092219558382 H 0.0 **** 0.06
9170 H 48.946624283100164 16.010117923040127 64.41615186543774 H 0.0 **** 0.06
9171 C 102.42383502977302 107.79396255729648 28.363873226460555 C 0.0 **** -0.24
9172 H 101.79075129972455 107.18166123888275 29.006885881806895 H 0.0 **** 0.06
9173 H 103.31256749731335 107.22685004184783 28.08552780868078 H 0.0 **** 0.06
9174 H 102.71961696074743 108.69584043158733 28.898349036067003 H 0.0 **** 0.06
9175 H 101.87086202503383 108.06755109609827 27.465750044806697 H 0.0 **** 0.06
9176 C 74.53578468327146 62.846304024445324 68.95918747556493 C 0.0 **** -0.24
9177 H 74.94848433587259 63.499359314173326 68.19006269473459 H 0.0 **** 0.06
9178 H 75.34047841317613 62.263838289600564 69.40988349214376 H 0.0 **** 0.06
9179 H 73.80735676461268 62.172102591669294 68.50910603443825 H 0.0 **** 0.06
9180 H 74.04946304006486 63.44868915382198 69.72582525779379 H 0.0 **** 0.06
9181 C 91.09509055699317 92.2049867869205 103.37443678847302 C 0.0 **** -0.24
9182 H 91.10276494994716 92.22789009902982 104.46461646414605 H 0.0 **** 0.06
9183 H 91.86531588400479 91.519927751891 103.0203998105514 H 0.0 **** 0.06
9184 H 91.29194816058353 93.20564351809796 102.98842594238357 H 0.0 **** 0.06
9185 H 90.11967531903272 91.86676941306081 103.02500261569679 H 0.0 **** 0.06
9186 C 61.89957686903483 48.46650138310355 25.329274542420393 C 0.0 **** -0.24
9187 H 61.30679952333816 48.23632866720794 24.443765259553444 H 0.0 **** 0.06
9188 H 62.05331548915592 47.55735120660739 25.90982727377431 H 0.0 **** 0.06
9189 H 61.372968316337676 49.20232745893219 25.937814271388135 H 0.0 **** 0.06
9190 H 62.8647152928005 48.87194609074453 25.024718191932365 H 0.0 **** 0.06
9191 C 23.431548642834002 69.6463853199487 82.79090327223926 C 0.0 **** -0.24
9192 H 23.406636360400654 69.87403824648209 83.85595753336054 H 0.0 **** 0.06
9193 H 23.111758219477053 68.6152791090758 82.63240300915928 H 0.0 **** 0.06
9194 H 24.446964309034172 69.7730820614172 82.41616595242849 H 0.0 **** 0.06
9195 H 22.761185544590887 70.3209563608309 82.25940511533284 H 0.0 **** 0.06
9196 C 101.13878734089971 28.12573825397554 39.17442940357529 C 0.0 **** -0.24
9197 H 101.18806170137691 28.697944444753034 40.10037443042984 H 0.0 **** 0.06
9198 H 101.9949301720952 27.452290962177983 39.118256331919326 H 0.0 **** 0.06
9199 H 101.15601054648877 28.807511137021038 38.32406640270398 H 0.0 **** 0.06
9200 H 100.21742100012125 27.543725429054476 39.15544883536887 H 0.0 **** 0.06
9201 C 28.152629720913275 16.276473704628838 19.032335591375414 C 0.0 **** -0.24
9202 H 27.15004546200251 16.683294491251434 19.163963001153576 H 0.0 **** 0.06
9203 H 28.137465816454522 15.203485839391835 19.22296930683109 H 0.0 **** 0.06
9204 H 28.834660287954684 16.760340888123636 19.732021967775466 H 0.0 **** 0.06
9205 H 28.487758833653615 16.460493376706264 18.011690523077334 H 0.0 **** 0.06
9206 C 69.71913218084148 17.510813278577217 44.81098168110759 C 0.0 **** -0.24
9207 H 69.35981768179579 16.916106705387364 45.65065381751316 H 0.0 **** 0.06
9208 H 70.80413107485072 17.42315332535526 44.74097199131762 H 0.0 **** 0.06
9209 H 69.44769155977087 18.55588824408747 44.963433281686434 H 0.0 **** 0.06
9210 H 69.26547713046546 17.149641072977488 43.88832582375676 H 0.0 **** 0.06
9211 C 36.20735708375841 3.830807884084477 112.54655484240836 C 0.0 **** -0.24
9212 H 36.57930993274444 3.1114072315410723 111.81665283633572 H 0.0 **** 0.06
9213 H 35.29690285686837 3.4452664125823684 113.00472835718156 H 0.0 **** 0.06
9214 H 35.991440507408726 4.775607145170557 112.047593396577 H 0.0 **** 0.06
9215 H 36.96286645410908 3.9907320330126748 113.31637237687896 H 0.0 **** 0.06
9216 C 5.28668719972103 66.85992565229876 84.81316779481597 C 0.0 **** -0.24
9217 H 4.657492741215265 66.38992052517307 84.05723813569841 H 0.0 **** 0.06
9218 H 4.703870610973695 67.02284207285598 85.71996171550933 H 0.0 **** 0.06
9219 H 5.651834264962076 67.81632787980888 84.43776057955813 H 0.0 **** 0.06
9220 H 6.1328664256429875 66.21064444898414 85.03612007830736 H 0.0 **** 0.06
9221 C 11.090237751379476 91.64368942785234 0.15405830119020436 C 0.0 **** -0.24
9222 H 10.522123973041033 92.5688970931929 0.05944002378018354 H 0.0 **** 0.06
9223 H 11.28516383491808 91.2342187420831 -0.8372679440928437 H 0.0 **** 0.06
9224 H 10.518861146049915 90.92450674821731 0.7391634735226944 H 0.0 **** 0.06
9225 H 12.037560727397732 91.84935028381301 0.6542022989030443 H 0.0 **** 0.06
9226 C 110.65526077405804 88.23759756614749 101.20344589721225 C 0.0 **** -0.24
9227 H 110.21705255451434 89.20316818743638 100.95137041405417 H 0.0 **** 0.06
9228 H 111.70015444008601 88.22046261239794 100.89245588350968 H 0.0 **** 0.06
9229 H 110.10975220091257 87.4454596373395 100.69185039825433 H 0.0 **** 0.06
9230 H 110.59504730942245 88.08270886705614 102.28143664230674 H 0.0 **** 0.06
9231 C 15.426706891546644 100.81808464601846 46.05296320731553 C 0.0 **** -0.24
9232 H 14.516648751405597 100.40133606224825 45.62102577175236 H 0.0 **** 0.06
9233 H 15.367948413785967 101.90690922944367 46.042930658821945 H 0.0 **** 0.06
9234 H 16.287481821406516 100.49460892160567 45.46756324668585 H 0.0 **** 0.06
9235 H 15.533412314179913 100.46994349342125 47.080272221878744 H 0.0 **** 0.06
9236 C 100.26182311201035 116.21399484713444 41.24517666683897 C 0.0 **** -0.24
9237 H 100.88433033070339 115.75277018287204 40.47804451649645 H 0.0 **** 0.06
9238 H 100.30086386745671 115.61302566841053 42.153803655906586 H 0.0 **** 0.06
9239 H 99.23238473996867 116.27247179690374 40.891231427527146 H 0.0 **** 0.06
9240 H 100.6301284759677 117.21778155238437 41.4567198821548 H 0.0 **** 0.06
9241 C 88.87332368986239 96.65773354702634 59.08096407005477 C 0.0 **** -0.24
9242 H 89.66434566010506 96.15311551234083 59.63538087195422 H 0.0 **** 0.06
9243 H 87.90780131121718 96.41993364824901 59.52772226950636 H 0.0 **** 0.06
9244 H 88.88635949536567 96.32138135487293 58.04317626785586 H 0.0 **** 0.06
9245 H 89.03550023743486 97.73492825963785 59.11584149122677 H 0.0 **** 0.06
9246 C 81.36943767656263 119.86564151242897 122.31069962102524 C 0.0 **** -0.24
9247 H 80.97377694651371 119.86670906046135 121.29536591238244 H 0.0 **** 0.06
9248 H 82.03108280844356 119.00949077797691 122.44201513210493 H 0.0 **** 0.06
9249 H 80.54539313251863 119.80089291477037 123.02164713684857 H 0.0 **** 0.06
9250 H 81.92735442707414 120.78614553666819 122.48449665505487 H 0.0 **** 0.06
9251 C 116.93006827998082 52.057954370968446 2.7726711060110034 C 0.0 **** -0.24
9252 H 116.24955417546073 51.42527243213499 2.204099064259978 H 0.0 **** 0.06
9253 H 116.35788996201529 52.69972660684607 3.442297475078945 H 0.0 **** 0.06
9254 H 117.51106200157585 52.674293089846174 2.0862746942595294 H 0.0 **** 0.06
9255 H 117.60414836308637 51.432320290176335 3.3574771856688415 H 0.0 **** 0.06
9256 C 60.651899287367854 78.97805431662903 69.76331877547648 C 0.0 **** -0.24
9257 H 60.83436820977653 77.90357331123386 69.78311260625358 H 0.0 **** 0.06
9258 H 60.968420772623716 79.416992496749 70.70934125740334 H 0.0 **** 0.06
9259 H 59.587597421861005 79.16215894125494 69.61483582174915 H 0.0 **** 0.06
9260 H 61.21564716411211 79.427828616234 68.94687253624372 H 0.0 **** 0.06
9261 C 51.999332120919746 55.70015929187042 61.40938893341192 C 0.0 **** -0.24
9262 H 52.34951478089192 54.66830119967932 61.387364016201815 H 0.0 **** 0.06
9263 H 52.85373167183724 56.37511331881271 61.358727316205716 H 0.0 **** 0.06
9264 H 51.44852797491575 55.87773670545138 62.33308433001457 H 0.0 **** 0.06
9265 H 51.34425439695906 55.87790816601253 60.555967176492004 H 0.0 **** 0.06
9266 C 113.89769517371072 41.938203996441615 106.19780094596445 C 0.0 **** -0.24
9267 H 113.07371397000574 42.56718858041973 106.53477794690647 H 0.0 **** 0.06
9268 H 113.7367498331208 40.91514414593995 106.53957475857013 H 0.0 **** 0.06
9269 H 114.83487244091671 42.315851665281095 106.60985832342939 H 0.0 **** 0.06
9270 H 113.9463393431694 41.95557238607625 105.10987626579407 H 0.0 **** 0.06
9271 C 41.87274215456986 25.701505750770444 91.20126902518567 C 0.0 **** -0.24
9272 H 41.418763937373484 24.71505194545321 91.10740853538184 H 0.0 **** 0.06
9273 H 41.37315768776136 26.396366506960966 90.52540877304853 H 0.0 **** 0.06
9274 H 42.9300345285817 25.640478030717 90.94502005406628 H 0.0 **** 0.06
9275 H 41.767692697198186 26.052652231469267 92.22753013184084 H 0.0 **** 0.06
9276 C 100.28016967879194 38.09251881513035 100.2896586333078 C 0.0 **** -0.24
9277 H 99.74966813665034 38.0951755812726 99.3373602577361 H 0.0 **** 0.06
9278 H 100.267519618857 39.09625361398196 100.7152307129953 H 0.0 **** 0.06
9279 H 101.31098407030686 37.77736536513726 100.13082832122547 H 0.0 **** 0.06
9280 H 99.79075623003979 37.40086949239742 100.9765442929974 H 0.0 **** 0.06
9281 C 78.63668009325175 96.74606050799557 67.4838277903998 C 0.0 **** -0.24
9282 H 78.93490714265687 96.30004508116755 68.43324711816334 H 0.0 **** 0.06
9283 H 78.39334120689495 95.95727815745764 66.7721707769602 H 0.0 **** 0.06
9284 H 79.45674309803104 97.34917070663377 67.09337175069993 H 0.0 **** 0.06
9285 H 77.76298282246398 97.37880777707943 67.63882482727519 H 0.0 **** 0.06
9286 C 0.2176482159853208 18.80689468765752 48.65254601254253 C 0.0 **** -0.24
9287 H 0.5651602519270398 19.602937512411387 47.995255175201265 H 0.0 **** 0.06
9288 H -0.550210090742155 18.224264717301565 48.14224008075564 H 0.0 **** 0.06
9289 H -0.19916907424854458 19.241956195418084 49.56067152046762 H 0.0 **** 0.06
9290 H 1.0543850073110832 18.157203576069918 48.911436326432465 H 0.0 **** 0.06
9291 C 78.38313995234284 44.13587855661226 2.536184029856946 C 0.0 **** -0.24
9292 H 77.67318632828352 44.91073114101426 2.2460366847972235 H 0.0 **** 0.06
9293 H 77.95135278941609 43.155003416218115 2.3353109884973833 H 0.0 **** 0.06
9294 H 78.60266299732217 44.2256556029822 3.600969900573329 H 0.0 **** 0.06
9295 H 79.30293389454616 44.253564818880335 1.9646657994261112 H 0.0 **** 0.06
9296 C 9.829868359537869 117.39343370614829 49.265373600348624 C 0.0 **** -0.24
9297 H 9.609841190856287 118.01513616741268 48.39705898685861 H 0.0 **** 0.06
9298 H 10.196014181044092 118.02125390921456 50.07767290250331 H 0.0 **** 0.06
9299 H 10.589859794361331 116.65852488406962 49.002120663276486 H 0.0 **** 0.06
9300 H 8.922808796604727 116.88041911782645 49.58340041335211 H 0.0 **** 0.06
9301 C 40.782188257656 121.9338119671033 95.4042682644727 C 0.0 **** -0.24
9302 H 40.08951965762242 121.09273868426176 95.42289730886614 H 0.0 **** 0.06
9303 H 40.25016532005151 122.84828029230948 95.66489703593166 H 0.0 **** 0.06
9304 H 41.206638033665115 122.03225480497981 94.40452099966129 H 0.0 **** 0.06
9305 H 41.58263705479726 121.76088985391884 96.1238735830417 H 0.0 **** 0.06
9306 C 22.728949872797394 29.499640313574332 48.23355376166458 C 0.0 **** -0.24
9307 H 22.768205603091467 28.414896160739232 48.13651143456588 H 0.0 **** 0.06
9308 H 22.4088530455779 29.76203973451078 49.242547698989824 H 0.0 **** 0.06
9309 H 22.019882912928743 29.90355006105611 47.511181924405115 H 0.0 **** 0.06
9310 H 23.71764295469243 29.917596094554938 48.04604631445296 H 0.0 **** 0.06
9311 C 20.980705700445128 19.13928560217674 26.181939959127206 C 0.0 **** -0.24
9312 H 21.687011267690096 18.581078568161246 26.79564707667449 H 0.0 **** 0.06
9313 H 21.527371041511657 19.823095466431525 25.531068763587754 H 0.0 **** 0.06
9314 H 20.309544473419464 19.707920593823303 26.82540632872255 H 0.0 **** 0.06
9315 H 20.400580974856695 18.445082016101622 25.574167963295224 H 0.0 **** 0.06
9316 C 116.99965562390824 85.6834412020435 92.26434126586662 C 0.0 **** -0.24
9317 H 116.74648252075374 84.67123209031334 92.57963830300108 H 0.0 **** 0.06
9318 H 118.08407871513347 85.78581516968475 92.2105051381426 H 0.0 **** 0.06
9319 H 116.60147474508165 86.39833882265592 92.98557604298986 H 0.0 **** 0.06
9320 H 116.56670446835608 85.876873075639 91.28329463472187 H 0.0 **** 0.06
9321 C 102.9333373006325 87.67104458190423 100.57330930541002 C 0.0 **** -0.24
9322 H 103.25601718164688 88.63664846661072 100.96067589642388 H 0.0 **** 0.06
9323 H 103.80175775305645 87.11106481594916 100.22643078766211 H 0.0 **** 0.06
9324 H 102.24401371121053 87.82381884478275 99.74287981185057 H 0.0 **** 0.06
9325 H 102.43239079391094 87.11219697866218 101.36358081908327 H 0.0 **** 0.06
9326 C 46.51892240454373 118.18794885566655 116.38516204184961 C 0.0 **** -0.24
9327 H 45.832700664649366 117.5486353666916 115.82943896784042 H 0.0 **** 0.06
9328 H 46.02461495162311 118.55464396698926 117.28542590983183 H 0.0 **** 0.06
9329 H 46.81255752025078 119.03320334294841 115.76251493926799 H 0.0 **** 0.06
9330 H 47.40428374149781 117.6168733681227 116.66280419031413 H 0.0 **** 0.06
9331 C 21.639746051890086 83.58841753319663 55.81006640426858 C 0.0 **** -0.24
9332 H 21.353037138454567 84.11859215850089 54.902431599789395 H 0.0 **** 0.06
9333 H 21.16783411276387 82.6049238588977 55.81958228121141 H 0.0 **** 0.06
9334 H 21.3146189696443 84.15627218678736 56.68134968616016 H 0.0 **** 0.06
9335 H 22.723138380422625 83.47125985715755 55.835488265457855 H 0.0 **** 0.06
9336 C 85.82572199111459 17.697018355357955 65.4593444343067 C 0.0 **** -0.24
9337 H 85.46182092167155 18.719744418601493 65.36933081936553 H 0.0 **** 0.06
9338 H 85.00080529560162 17.041595905434548 65.73899599627444 H 0.0 **** 0.06
9339 H 86.60095724788152 17.652464590837496 66.22394914238495 H 0.0 **** 0.06
9340 H 86.23859651499012 17.37225187856791 64.50390499027532 H 0.0 **** 0.06
9341 C 70.44593611680824 76.34182527101663 20.877824439441994 C 0.0 **** -0.24
9342 H 70.48012563787944 75.35447499183795 20.417347914453536 H 0.0 **** 0.06
9343 H 71.42437570346283 76.5826213652955 21.29494961627465 H 0.0 **** 0.06
9344 H 69.70103843274819 76.34498002156869 21.674610928234152 H 0.0 **** 0.06
9345 H 70.17736222090394 77.08456224711051 20.127191421314 H 0.0 **** 0.06
9346 C 95.66226653305492 75.63083811650012 28.71824383998097 C 0.0 **** -0.24
9347 H 96.48796657789936 74.92138807914154 28.658576088217472 H 0.0 **** 0.06
9348 H 95.98135740771826 76.51138550305467 29.277120858749157 H 0.0 **** 0.06
9349 H 94.81874064911503 75.16396348189284 29.224646020129 H 0.0 **** 0.06
9350 H 95.3646694035464 75.92713529933388 27.712106131404852 H 0.0 **** 0.06
9351 C 89.0301820607213 93.27385378686546 120.06989541597459 C 0.0 **** -0.24
9352 H 88.1875236868749 92.98466276665405 120.69850228008806 H 0.0 **** 0.06
9353 H 89.84201727240014 93.64251238935972 120.69795801469466 H 0.0 **** 0.06
9354 H 88.71696367621905 94.0597149625728 119.3822126312194 H 0.0 **** 0.06
9355 H 89.37328035212255 92.4090951076644 119.50179496077875 H 0.0 **** 0.06
9356 C 61.125564426747246 78.67870604623809 65.30882438160972 C 0.0 **** -0.24
9357 H 61.91366442487845 77.99849890972317 65.63268824985661 H 0.0 **** 0.06
9358 H 61.14932750188177 79.580436049121 65.92308703599713 H 0.0 **** 0.06
9359 H 60.157218836711934 78.19090646528639 65.41611120888646 H 0.0 **** 0.06
9360 H 61.284202138677074 78.94704802882566 64.26371153603691 H 0.0 **** 0.06
9361 C 24.399297549472607 75.31790208596442 36.43879921506539 C 0.0 **** -0.24
9362 H 23.454828087593683 75.47557150050841 36.9595293918932 H 0.0 **** 0.06
9363 H 24.82204157712195 76.2816796022745 36.15430749596942 H 0.0 **** 0.06
9364 H 24.22563246025362 74.71835843864511 35.54420205330996 H 0.0 **** 0.06
9365 H 25.094000716412268 74.79579560930466 37.09646056032466 H 0.0 **** 0.06
9366 C 12.555556846689129 88.0261446928377 43.921858024004706 C 0.0 **** -0.24
9367 H 11.568497806471754 88.19066520965583 43.49080985144997 H 0.0 **** 0.06
9368 H 13.086108347766299 87.27166612887862 43.339448003699346 H 0.0 **** 0.06
9369 H 12.44928293952168 87.68227579163948 44.95120501108967 H 0.0 **** 0.06
9370 H 13.119465069682775 88.95936711157543 43.90657340656327 H 0.0 **** 0.06
9371 C 122.02012963844015 80.3698258039912 119.94642749817432 C 0.0 **** -0.24
9372 H 123.10426462545007 80.3643120577681 119.83532377838057 H 0.0 **** 0.06
9373 H 121.55954539312313 80.66777135012961 119.0041527123725 H 0.0 **** 0.06
9374 H 121.73899014396147 81.07666605199285 120.72792711431386 H 0.0 **** 0.06
9375 H 121.67824130372887 79.371278345625 120.21875537333194 H 0.0 **** 0.06
9376 C 28.974695813283972 61.31733970454261 56.48296463703565 C 0.0 **** -0.24
9377 H 28.91584375322566 60.497664528195365 55.766911449597615 H 0.0 **** 0.06
9378 H 30.01650499185243 61.60988757416978 56.61463664956858 H 0.0 **** 0.06
9379 H 28.563916074219634 60.99471878947724 57.43869617726375 H 0.0 **** 0.06
9380 H 28.403471171541312 62.16675722844304 56.10961847410522 H 0.0 **** 0.06
9381 C 1.137488197012937 29.667358937440014 113.31556013974914 C 0.0 **** -0.24
9382 H 1.3180812706043046 29.47676310894144 114.37354053181545 H 0.0 **** 0.06
9383 H 1.8079578604468907 30.454005837324885 112.96831777488926 H 0.0 **** 0.06
9384 H 0.10352063056381056 29.981787992786735 113.1742146043283 H 0.0 **** 0.06
9385 H 1.321355346115178 28.7566520721294 112.74601736118304 H 0.0 **** 0.06
9386 C 75.68145036416362 100.3489487534925 61.465071064811696 C 0.0 **** -0.24
9387 H 74.93369828263502 101.12159451704804 61.647640373689 H 0.0 **** 0.06
9388 H 75.24721771888048 99.56227918329057 60.84628414772169 H 0.0 **** 0.06
9389 H 76.00706078790822 99.92653542580581 62.41593014411728 H 0.0 **** 0.06
9390 H 76.5368139627706 100.78617453037714 60.94983240803174 H 0.0 **** 0.06
9391 C 39.311197038383796 109.25162434044293 1.5151640725032536 C 0.0 **** -0.24
9392 H 39.503963894239206 110.32460871924445 1.494077688294567 H 0.0 **** 0.06
9393 H 38.98244900772903 108.96126194597477 2.5135335423777985 H 0.0 **** 0.06
9394 H 40.224928221987284 108.71286229146216 1.262437026058839 H 0.0 **** 0.06
9395 H 38.53367932149922 109.00859385434077 0.7911160786221298 H 0.0 **** 0.06
9396 C 61.769007971540084 31.083871916228773 17.53434801957924 C 0.0 **** -0.24
9397 H 61.0680957058807 30.38912392588837 17.997216640599362 H 0.0 **** 0.06
9398 H 62.36869117801216 30.554106555796068 16.7936106222582 H 0.0 **** 0.06
9399 H 62.423779765873796 31.502953808788824 18.299046293662343 H 0.0 **** 0.06
9400 H 61.21615894759528 31.887793016596845 17.048631089367476 H 0.0 **** 0.06
9401 C 21.911787574927644 36.40814901683379 24.264086000146513 C 0.0 **** -0.24
9402 H 22.164378628789564 35.50199766105689 24.814685316679963 H 0.0 **** 0.06
9403 H 22.2391198171876 36.30752465820396 23.22926791384657 H 0.0 **** 0.06
9404 H 22.412379310346296 37.26134845004836 24.722210206385675 H 0.0 **** 0.06
9405 H 20.83280336268075 36.56212069334131 24.29176187109112 H 0.0 **** 0.06
9406 C 24.90604353563245 108.52345310011151 42.47869335325211 C 0.0 **** -0.24
9407 H 25.475374042384544 108.25123155909046 43.366894502998036 H 0.0 **** 0.06
9408 H 24.99864859165882 107.73387594317228 41.73155985539964 H 0.0 **** 0.06
9409 H 25.294286627527867 109.45697843568007 42.070513346235586 H 0.0 **** 0.06
9410 H 23.856660728486588 108.65167749156524 42.74463765876838 H 0.0 **** 0.06
9411 C 79.91935817255234 13.513390322496189 95.95822938481388 C 0.0 **** -0.24
9412 H 80.39337530633838 13.55868663864154 96.93784310167581 H 0.0 **** 0.06
9413 H 80.44160141205674 12.786573604584305 95.3354817423878 H 0.0 **** 0.06
9414 H 79.96582861912492 14.495253350900803 95.48652857462969 H 0.0 **** 0.06
9415 H 78.8776873129338 13.21287156249474 96.07137720504329 H 0.0 **** 0.06
9416 C 117.40234509324736 96.24439899090106 23.45392888156188 C 0.0 **** -0.24
9417 H 117.45044255094497 95.66862011684711 24.37891132767262 H 0.0 **** 0.06
9418 H 118.40871467769456 96.37037222870646 23.05315688053509 H 0.0 **** 0.06
9419 H 116.96773832927767 97.22209054679357 23.6578901882121 H 0.0 **** 0.06
9420 H 116.78466973950887 95.71527798965332 22.728532279898502 H 0.0 **** 0.06
9421 C 22.576753142162033 22.12283360132362 69.57499714643134 C 0.0 **** -0.24
9422 H 21.756300908321464 21.409637270213665 69.65285111527871 H 0.0 **** 0.06
9423 H 23.285713105448053 21.949901109444966 70.38600230848525 H 0.0 **** 0.06
9424 H 22.184581109489727 23.13708821745911 69.64500258289095 H 0.0 **** 0.06
9425 H 23.081405254176616 21.992978543054846 68.61714951281988 H 0.0 **** 0.06
9426 C 5.902942901945394 54.55247283755415 10.673400227216462 C 0.0 **** -0.24
9427 H 5.078658126096826 54.44581123935046 11.379051045809376 H 0.0 **** 0.06
9428 H 5.922864160929905 53.69038536375328 10.006696800561514 H 0.0 **** 0.06
9429 H 6.843532204414814 54.60986703826467 11.221531432567133 H 0.0 **** 0.06
9430 H 5.765412179319753 55.46137944469274 10.089371890287396 H 0.0 **** 0.06
9431 C 102.82772812921081 43.08588882265403 34.89488317111616 C 0.0 **** -0.24
9432 H 101.87500945476498 43.35562402153121 34.44032721146888 H 0.0 **** 0.06
9433 H 102.67531435171546 42.27403387530498 35.60624927198978 H 0.0 **** 0.06
9434 H 103.24073920603408 43.95144342875791 35.414045255262664 H 0.0 **** 0.06
9435 H 103.52213918450144 42.76325448676248 34.11856909252248 H 0.0 **** 0.06
9436 C 30.28641174505003 1.1073963633438098 81.09569517353464 C 0.0 **** -0.24
9437 H 29.421397021489327 1.710398414291177 81.37406408918997 H 0.0 **** 0.06
9438 H 30.974730303163824 1.7120021125027165 80.50428276646147 H 0.0 **** 0.06
9439 H 29.956450468848573 0.25149460906200716 80.50682262492381 H 0.0 **** 0.06
9440 H 30.790109448331748 0.7577294699332242 81.99657073986896 H 0.0 **** 0.06
9441 C 33.94250921637769 106.71775011943157 37.423936985673315 C 0.0 **** -0.24
9442 H 34.206856686564805 105.68387785387782 37.64809704828798 H 0.0 **** 0.06
9443 H 33.70237246185883 106.80859819721405 36.36380105575628 H 0.0 **** 0.06
9444 H 34.78299578210451 107.3673886763464 37.66350134308585 H 0.0 **** 0.06
9445 H 33.07704989548617 107.00859962428171 38.01861993624652 H 0.0 **** 0.06
9446 C 40.338917092553686 96.98252205831722 47.11574926390574 C 0.0 **** -0.24
9447 H 40.67265020066566 97.87371241852748 46.5846381080589 H 0.0 **** 0.06
9448 H 39.476950337471806 96.55594671561687 46.60078224272851 H 0.0 **** 0.06
9449 H 40.058397807500626 97.25073911866338 48.134093333231164 H 0.0 **** 0.06
9450 H 41.145968295844796 96.25040078873263 47.1403850503591 H 0.0 **** 0.06
9451 C 66.14957045161592 12.99027409467871 40.725814811189366 C 0.0 **** -0.24
9452 H 65.83975576175811 12.904608498980433 41.766833223043136 H 0.0 **** 0.06
9453 H 65.4962262522578 13.693917546183759 40.210063541500176 H 0.0 **** 0.06
9454 H 66.08469081068677 12.013343610572818 40.24595583909195 H 0.0 **** 0.06
9455 H 67.1780906132204 13.34945073573336 40.681717351139014 H 0.0 **** 0.06
9456 C 43.0631106142734 24.148296306075835 29.287821623621994 C 0.0 **** -0.24
9457 H 43.11101862794675 23.261316277749906 29.91959878728153 H 0.0 **** 0.06
9458 H 42.397799613833115 24.8828573330656 29.742981563712192 H 0.0 **** 0.06
9459 H 42.68327656920479 23.873227942117765 28.304034754352415 H 0.0 **** 0.06
9460 H 44.061144640098064 24.575379713851866 29.18576762371083 H 0.0 **** 0.06
9461 C 36.02930968203384 91.00592889909322 120.54951129924584 C 0.0 **** -0.24
9462 H 35.02189043774453 90.93406665058575 120.13902690515307 H 0.0 **** 0.06
9463 H 36.44697570355376 90.00546094298076 120.6629092712066 H 0.0 **** 0.06
9464 H 35.98988720741403 91.49666329298012 121.52253895094891 H 0.0 **** 0.06
9465 H 36.65616721287634 91.58827930926711 119.87380885309285 H 0.0 **** 0.06
9466 C 120.02810121274126 69.20013907696571 8.658545379688746 C 0.0 **** -0.24
9467 H 120.01810236620463 70.14601556776731 9.199923069956043 H 0.0 **** 0.06
9468 H 121.04280287210725 68.98357516861284 8.32562541392565 H 0.0 **** 0.06
9469 H 119.36865603324105 69.27024407063564 7.793606963954517 H 0.0 **** 0.06
9470 H 119.6816031418349 68.40226745337242 9.316061263518833 H 0.0 **** 0.06
9471 C 58.748803674545854 4.5354476248491835 95.26412731591316 C 0.0 **** -0.24
9472 H 59.40747250880139 5.2585556508581135 94.78137233445943 H 0.0 **** 0.06
9473 H 59.14884019697109 3.5310935509365606 95.12655267899993 H 0.0 **** 0.06
9474 H 57.75606344357266 4.595544758718859 94.81751078493423 H 0.0 **** 0.06
9475 H 58.682890242318706 4.759302959889595 96.32849017425795 H 0.0 **** 0.06
9476 C 16.235635899868754 12.458141749594631 113.78249409931132 C 0.0 **** -0.24
9477 H 17.31220546830491 12.545819567232599 113.92497789443715 H 0.0 **** 0.06
9478 H 15.777142720405408 13.44293379712714 113.86889272704465 H 0.0 **** 0.06
9479 H 15.821237109158872 11.796091724520181 114.54211866315438 H 0.0 **** 0.06
9480 H 16.032053774698653 12.047690067769338 112.79257644527831 H 0.0 **** 0.06
9481 C 36.68106136412425 23.01104115552164 89.12168317133441 C 0.0 **** -0.24
9482 H 37.43975858394879 23.765420692235445 89.33007024904902 H 0.0 **** 0.06
9483 H 37.09015750520604 22.020123777410532 89.32389677413158 H 0.0 **** 0.06
9484 H 36.38312797291388 23.075234408557037 88.07553451755865 H 0.0 **** 0.06
9485 H 35.813626190293576 23.182731495534085 89.75887212755768 H 0.0 **** 0.06
9486 C 57.37666418522895 50.63335136902287 69.19373827124292 C 0.0 **** -0.24
9487 H 57.196504229903354 50.05936332112533 68.28376060945624 H 0.0 **** 0.06
9488 H 56.441319712110186 51.08301117997754 69.52967427868242 H 0.0 **** 0.06
9489 H 58.10404173344213 51.4185031858211 68.98804519390029 H 0.0 **** 0.06
9490 H 57.76299995437628 49.973310809098415 69.96920919882706 H 0.0 **** 0.06
9491 C 49.63639988568809 50.68057836110364 68.9301127416619 C 0.0 **** -0.24
9492 H 49.5940070376335 49.60362923033816 68.76469329252484 H 0.0 **** 0.06
9493 H 48.6305543709212 51.05738588647159 69.11832558857031 H 0.0 **** 0.06
9494 H 50.04869457160743 51.16777406255527 68.04704676639494 H 0.0 **** 0.06
9495 H 50.27088775283532 50.89041164208419 69.7914775278582 H 0.0 **** 0.06
9496 C 96.40067504555049 115.67920804286591 9.964847356562771 C 0.0 **** -0.24
9497 H 97.33045724759415 115.98425028825108 9.486002554942257 H 0.0 **** 0.06
9498 H 96.56554311526122 114.75902413547598 10.525280421142675 H 0.0 **** 0.06
9499 H 95.63852974104441 115.51005911240821 9.203964763193248 H 0.0 **** 0.06
9500 H 96.06767062241693 116.46411030798276 10.643528126832933 H 0.0 **** 0.06
9501 C 120.10183522563138 91.30443241948672 80.52690096322829 C 0.0 **** -0.24
9502 H 120.23715763673388 90.59684406632675 79.70848436061888 H 0.0 **** 0.06
9503 H 120.52618474176344 90.88788868482902 81.4408982185887 H 0.0 **** 0.06
9504 H 119.0384505533633 91.492862631496 80.67269256879732 H 0.0 **** 0.06
9505 H 120.60754259324628 92.2391550858074 80.28527789053348 H 0.0 **** 0.06
9506 C 84.08551707510685 105.82854710240966 39.673933271406355 C 0.0 **** -0.24
9507 H 85.06636539307237 105.81253307459374 40.149719242197676 H 0.0 **** 0.06
9508 H 83.55861965861382 106.73976740739815 39.959283701303264 H 0.0 **** 0.06
9509 H 83.51139792259076 104.96027283912179 39.99552784012175 H 0.0 **** 0.06
9510 H 84.20730790157322 105.80342235659481 38.59088392314595 H 0.0 **** 0.06
9511 C 42.25363897430724 44.13933112534008 100.87129277319644 C 0.0 **** -0.24
9512 H 43.069007359195574 44.55465771950571 101.46349150816414 H 0.0 **** 0.06
9513 H 42.58399960532246 43.21546127039903 100.39611965337221 H 0.0 **** 0.06
9514 H 41.95827449366791 44.85671474150237 100.10639301775547 H 0.0 **** 0.06
9515 H 41.40377521315123 43.92986577703962 101.52099962509163 H 0.0 **** 0.06
9516 C 89.94602572160844 101.41011955093578 52.339935188704374 C 0.0 **** -0.24
9517 H 90.44638825787652 101.84838145218575 51.47528608301553 H 0.0 **** 0.06
9518 H 89.60876424770413 102.20571173877678 53.005035896797665 H 0.0 **** 0.06
9519 H 90.64071361210472 100.76070050469275 52.87144125240752 H 0.0 **** 0.06
9520 H 89.08693154762616 100.82745452645554 52.00495027763208 H 0.0 **** 0.06
9521 C 48.03742457648423 84.52051746865402 83.97834701885455 C 0.0 **** -0.24
9522 H 48.57503895100703 83.58342208516032 83.83063715001623 H 0.0 **** 0.06
9523 H 48.59662266513794 85.33510507377193 83.51757626662459 H 0.0 **** 0.06
9524 H 47.9288493453073 84.71113456176809 85.04542508462606 H 0.0 **** 0.06
9525 H 47.05222454998581 84.44992655051041 83.51847757826118 H 0.0 **** 0.06
9526 C 46.830565849855546 71.3454692611935 96.76950241503823 C 0.0 **** -0.24
9527 H 46.371387592337754 70.3593683654951 96.69052420939889 H 0.0 **** 0.06
9528 H 47.761236621592175 71.35828389990945 96.20153157656188 H 0.0 **** 0.06
9529 H 47.03919095452892 71.56564201842397 97.81658057203623 H 0.0 **** 0.06
9530 H 46.14872305779801 72.09556393350897 96.36799082693608 H 0.0 **** 0.06
9531 C 101.33113139977735 76.31653858151464 77.2802904522722 C 0.0 **** -0.24
9532 H 101.66331722967593 76.78364193705181 78.20753269160235 H 0.0 **** 0.06
9533 H 100.5575449977008 75.58104995448917 77.50142321102754 H 0.0 **** 0.06
9534 H 102.1762114652382 75.8241390180633 76.79856177952121 H 0.0 **** 0.06
9535 H 100.92768452493559 77.07975613269585 76.61381180020186 H 0.0 **** 0.06
9536 C 81.6593799461543 116.13872785646544 106.15512298251636 C 0.0 **** -0.24
9537 H 81.12979603996052 116.89122057969524 105.57204611116487 H 0.0 **** 0.06
9538 H 82.497038836857 116.60511077404732 106.67532561650646 H 0.0 **** 0.06
9539 H 82.03245407890071 115.35925279892228 105.4907778491339 H 0.0 **** 0.06
9540 H 80.9783340930386 115.69991232921583 106.88528302443103 H 0.0 **** 0.06
9541 C 30.590985832947 101.28039917554486 91.10388470396083 C 0.0 **** -0.24
9542 H 30.159808350453183 100.28748676773793 91.23893345540614 H 0.0 **** 0.06
9543 H 30.805181585301973 101.71894821114452 92.07794116552236 H 0.0 **** 0.06
9544 H 29.883443850876603 101.9128367849199 90.56788551455156 H 0.0 **** 0.06
9545 H 31.51449334067297 101.19979733181862 90.52952208396928 H 0.0 **** 0.06
9546 C 71.28289670796764 9.137527734619333 104.68079555142651 C 0.0 **** -0.24
9547 H 70.54610125375703 8.410982400125015 104.33895869549443 H 0.0 **** 0.06
9548 H 71.05390797272986 10.11437150473773 104.25560324126951 H 0.0 **** 0.06
9549 H 72.27695831977707 8.824835543171503 104.36124550624137 H 0.0 **** 0.06
9550 H 71.25454098273426 9.198340787155676 105.76924440966022 H 0.0 **** 0.06
9551 C 3.216744623415366 61.90942143264919 22.301461186971103 C 0.0 **** -0.24
9552 H 3.931890816402472 61.537114352188944 23.0356502253238 H 0.0 **** 0.06
9553 H 3.746272168232565 62.20089156324773 21.39429257922771 H 0.0 **** 0.06
9554 H 2.69221369298414 62.77268614806655 22.709507010510215 H 0.0 **** 0.06
9555 H 2.4973611114528182 61.12494503072278 22.065918657889654 H 0.0 **** 0.06
9556 C 66.61560943154876 65.25279599192004 22.654080478591652 C 0.0 **** -0.24
9557 H 66.01669505271406 66.10558808934067 22.33498281899415 H 0.0 **** 0.06
9558 H 66.89776555812068 64.66076741704114 21.782147945395423 H 0.0 **** 0.06
9559 H 66.03312804066567 64.63696518474205 23.339030076931607 H 0.0 **** 0.06
9560 H 67.5141687087638 65.6079419761879 23.157809213665615 H 0.0 **** 0.06
9561 C 100.04056855266506 34.0069774104214 41.87060804293936 C 0.0 **** -0.24
9562 H 100.31844181353821 33.47094085181266 42.778794949588644 H 0.0 **** 0.06
9563 H 99.00142830653346 34.32882788554912 41.94227375155455 H 0.0 **** 0.06
9564 H 100.15938607503969 33.34801910602363 41.00970819050748 H 0.0 **** 0.06
9565 H 100.68483752357366 34.87882746650243 41.75266246912642 H 0.0 **** 0.06
9566 C 52.42558385596375 7.987998346388167 99.1257169966367 C 0.0 **** -0.24
9567 H 52.37471124089714 8.176111500507645 100.1988086167716 H 0.0 **** 0.06
9568 H 53.01903478446425 8.768526415620244 98.64871374260986 H 0.0 **** 0.06
9569 H 51.41867351463756 7.991143469125831 98.7086633002194 H 0.0 **** 0.06
9570 H 52.890282849097105 7.017737760626034 98.949239257312 H 0.0 **** 0.06
9571 C 25.83123721391287 101.1650623228777 80.68933842364251 C 0.0 **** -0.24
9572 H 25.830574343467134 100.1501711672484 81.08602544247367 H 0.0 **** 0.06
9573 H 24.823080615358776 101.57634266333903 80.74152934203073 H 0.0 **** 0.06
9574 H 26.164179283918074 101.14887815259314 79.65191481756088 H 0.0 **** 0.06
9575 H 26.508000158558673 101.78499736596186 81.27832709185293 H 0.0 **** 0.06
9576 C 91.81041765609157 79.61298216373606 74.51884332700192 C 0.0 **** -0.24
9577 H 91.92610452545335 78.54711162629215 74.7190101430729 H 0.0 **** 0.06
9578 H 92.78489942801119 80.04793364873001 74.29744415124316 H 0.0 **** 0.06
9579 H 91.38324276394383 80.10288358928938 75.39337365145408 H 0.0 **** 0.06
9580 H 91.14775949427215 79.75143192828898 73.66440786083527 H 0.0 **** 0.06
9581 C 4.530286830304037 5.797852680009299 40.64741525152601 C 0.0 **** -0.24
9582 H 4.9469196544839775 6.772952167987029 40.90000625125242 H 0.0 **** 0.06
9583 H 3.4943709450762785 5.748000584037243 40.984645506356145 H 0.0 **** 0.06
9584 H 5.110751048287071 5.0171645026811404 41.1384390370624 H 0.0 **** 0.06
9585 H 4.5689346786309475 5.654773542380838 39.5685145536622 H 0.0 **** 0.06
9586 C 64.34953028852476 37.12934355103434 57.591085556406654 C 0.0 **** -0.24
9587 H 65.20556290236607 36.81261614711453 58.187685168295786 H 0.0 **** 0.06
9588 H 64.4248795832685 36.69842545082341 56.592127464370094 H 0.0 **** 0.06
9589 H 64.33940064819038 38.21627275167724 57.518550332968175 H 0.0 **** 0.06
9590 H 63.429808188380925 36.78750069951391 58.0663106391886 H 0.0 **** 0.06
9591 C 28.344751461224263 34.288564166313336 65.54193239959449 C 0.0 **** -0.24
9592 H 29.39714874372828 34.535377157420044 65.68005337803885 H 0.0 **** 0.06
9593 H 28.21261333419085 33.209178752790706 65.62323941997118 H 0.0 **** 0.06
9594 H 28.019421673300457 34.62164843413001 64.55711899216186 H 0.0 **** 0.06
9595 H 27.75124910133104 34.78585504987052 66.30908874178681 H 0.0 **** 0.06
9596 C 77.42077148168687 56.222253103477954 119.95418126053573 C 0.0 **** -0.24
9597 H 76.53666502991697 56.85827110777632 119.99750568551019 H 0.0 **** 0.06
9598 H 78.31673891449245 56.840622272854546 120.00511296210139 H 0.0 **** 0.06
9599 H 77.41767380124475 55.660868044645554 119.0187816334453 H 0.0 **** 0.06
9600 H 77.40989073360024 55.52752583050602 120.79408349298214 H 0.0 **** 0.06
9601 C 54.12628581059033 77.1616250978903 59.688152888918836 C 0.0 **** -0.24
9602 H 53.17956070256125 76.71438813362897 59.99242060077691 H 0.0 **** 0.06
9603 H 53.93803743643747 78.13036557047738 59.22557688143357 H 0.0 **** 0.06
9604 H 54.62391396393704 76.50684154825672 58.97264686826895 H 0.0 **** 0.06
9605 H 54.763173124329796 77.29305671068218 60.56350794143847 H 0.0 **** 0.06
9606 C 4.317679997851386 52.19137157970098 83.64366678656597 C 0.0 **** -0.24
9607 H 3.6632332450204927 52.700974270352695 82.93634247220811 H 0.0 **** 0.06
9608 H 5.1661058730971945 51.76253960474554 83.11013158040399 H 0.0 **** 0.06
9609 H 3.763543590118843 51.39715378520693 84.14479662454215 H 0.0 **** 0.06
9610 H 4.677183488290638 52.90553514935217 84.38442569427394 H 0.0 **** 0.06
9611 C 70.02831249976254 64.26597127708138 60.37820272247916 C 0.0 **** -0.24
9612 H 71.06039798817034 64.4824328259449 60.652613054129944 H 0.0 **** 0.06
9613 H 70.00295148643403 63.41372448956971 59.69898009850661 H 0.0 **** 0.06
9614 H 69.59248427152528 65.13604191265415 59.88637753408668 H 0.0 **** 0.06
9615 H 69.45560256734171 64.03260479614661 61.2762063920531 H 0.0 **** 0.06
9616 C 69.71968212061495 12.02619671221251 66.82107010170802 C 0.0 **** -0.24
9617 H 70.00481267141248 11.720612436750145 67.82717043609213 H 0.0 **** 0.06
9618 H 70.35750741575464 12.848193871543913 66.49663417129435 H 0.0 **** 0.06
9619 H 68.67995041290396 12.351124413848254 66.82096378774821 H 0.0 **** 0.06
9620 H 69.83710052405536 11.183606599641251 66.13935097244004 H 0.0 **** 0.06
9621 C 71.12672757784281 27.86165446000942 64.91934569345437 C 0.0 **** -0.24
9622 H 70.63225714238632 27.98254088702498 63.95541955594899 H 0.0 **** 0.06
9623 H 70.40093129016495 27.523634680435038 65.65967505492506 H 0.0 **** 0.06
9624 H 71.54790661843376 28.816814004554516 65.23437844966054 H 0.0 **** 0.06
9625 H 71.92396823745551 27.124292514759958 64.8289809559626 H 0.0 **** 0.06
9626 C 71.10561711110671 65.24710239271391 2.6968944583894654 C 0.0 **** -0.24
9627 H 70.76820203887183 64.6810220152299 1.828321929220408 H 0.0 **** 0.06
9628 H 72.1955104331289 65.2780204508336 2.708374740577767 H 0.0 **** 0.06
9629 H 70.74589250439021 64.76502970406116 3.6063779968983454 H 0.0 **** 0.06
9630 H 70.71262250490378 66.26205683744558 2.643642177984077 H 0.0 **** 0.06
9631 C 83.23733904040611 43.77055201830303 38.471131344953655 C 0.0 **** -0.24
9632 H 82.73711554958578 43.251447419067254 37.65420359685736 H 0.0 **** 0.06
9633 H 84.30022429031584 43.52766956973505 38.46003035921289 H 0.0 **** 0.06
9634 H 82.80364888829669 43.45611480332656 39.421444097391856 H 0.0 **** 0.06
9635 H 83.10857848581009 44.846615324980846 38.35181812902961 H 0.0 **** 0.06
9636 C 114.9704920875122 94.33732615015978 16.58065244906055 C 0.0 **** -0.24
9637 H 115.03270947526701 93.32763349453677 16.173849169858045 H 0.0 **** 0.06
9638 H 115.4242090831865 95.03891459586711 15.881027807111877 H 0.0 **** 0.06
9639 H 115.49914098645546 94.37890914570315 17.532567509805517 H 0.0 **** 0.06
9640 H 113.92365310588045 94.60146507885133 16.734678330951454 H 0.0 **** 0.06
9641 C 36.115873180475404 59.96953461462118 54.82490851386214 C 0.0 **** -0.24
9642 H 36.12220983727099 59.37747394654809 55.7401249617549 H 0.0 **** 0.06
9643 H 36.219174110873496 59.308223020833964 53.96481781877887 H 0.0 **** 0.06
9644 H 36.946363413360245 60.676047791376334 54.84335560606047 H 0.0 **** 0.06
9645 H 35.17605547701217 60.516634743 54.75329677784552 H 0.0 **** 0.06
9646 C 7.154823159824218 70.390900190743 60.984169204663836 C 0.0 **** -0.24
9647 H 8.078078254932649 69.83208589095454 61.135594793769336 H 0.0 **** 0.06
9648 H 7.392469958055301 71.41689819108302 60.70527107529181 H 0.0 **** 0.06
9649 H 6.573585207295281 70.38960084066483 61.90659422438545 H 0.0 **** 0.06
9650 H 6.573947847152766 69.92382759267704 60.18886914376545 H 0.0 **** 0.06
9651 C 120.65031601829287 109.66672112582452 87.16096157755038 C 0.0 **** -0.24
9652 H 120.73896463564313 108.9868020590119 88.00786864166972 H 0.0 **** 0.06
9653 H 119.89139119991307 109.29301942984634 86.47312778453869 H 0.0 **** 0.06
9654 H 121.60891827220667 109.73126177856875 86.64573698922129 H 0.0 **** 0.06
9655 H 120.36248768197237 110.65612347985626 87.51791818521517 H 0.0 **** 0.06
9656 C 74.36591443329758 61.63184054066585 100.3568004204954 C 0.0 **** -0.24
9657 H 73.44972075324537 62.04972168597004 99.93889534717312 H 0.0 **** 0.06
9658 H 75.19895450714796 61.838628674462825 99.68504226076013 H 0.0 **** 0.06
9659 H 74.25148020226746 60.55403106297666 100.47377343063951 H 0.0 **** 0.06
9660 H 74.56080988316145 62.08333937960549 101.32925075720945 H 0.0 **** 0.06
9661 C 32.04132280258882 77.66705241522337 53.79304037641202 C 0.0 **** -0.24
9662 H 31.768069375048086 78.67639006026963 53.48292218074698 H 0.0 **** 0.06
9663 H 31.988118781218382 77.59537559649493 54.88003254464496 H 0.0 **** 0.06
9664 H 33.057110804426436 77.44853947340772 53.46336331096808 H 0.0 **** 0.06
9665 H 31.352239739309965 76.95144748233037 53.34702118828949 H 0.0 **** 0.06
9666 C 106.54703033492507 119.61957545299882 107.32165719386137 C 0.0 **** -0.24
9667 H 107.57046018717938 119.53073858685444 107.68675513330433 H 0.0 **** 0.06
9668 H 106.2705179202438 120.67281433777788 107.27117078623513 H 0.0 **** 0.06
9669 H 105.87235502794368 119.09764749900232 107.99996652422536 H 0.0 **** 0.06
9670 H 106.47685581844738 119.17766586686868 106.3280986686018 H 0.0 **** 0.06
9671 C 4.1215057064479055 97.27105323954265 74.45473558850205 C 0.0 **** -0.24
9672 H 3.3205192193147326 97.45420958090591 75.16988972988221 H 0.0 **** 0.06
9673 H 4.974037382184122 96.82789598404091 74.97029214959332 H 0.0 **** 0.06
9674 H 4.421346036473537 98.21285607351388 73.99578537792354 H 0.0 **** 0.06
9675 H 3.768294306001849 96.58611296801283 73.68207083807843 H 0.0 **** 0.06
9676 C 14.848963920505156 18.709061443151626 100.70507539659303 C 0.0 **** -0.24
9677 H 15.714724386089415 18.345824399636854 100.15194452737376 H 0.0 **** 0.06
9678 H 13.953987181852995 18.600263016618484 100.09222983256635 H 0.0 **** 0.06
9679 H 14.993219570830036 19.760485844392733 100.95514379891617 H 0.0 **** 0.06
9680 H 14.734745881326688 18.13052054639131 101.62225086917107 H 0.0 **** 0.06
9681 C 111.38548276512873 121.77501990015865 76.377566903049 C 0.0 **** -0.24
9682 H 111.6480378365209 122.44182806844819 77.19947680447737 H 0.0 **** 0.06
9683 H 110.30436669732708 121.63423642831917 76.3562069876744 H 0.0 **** 0.06
9684 H 111.87416071177779 120.81143364226938 76.52108173148545 H 0.0 **** 0.06
9685 H 111.71419918291332 122.212952453692 75.43537334829793 H 0.0 **** 0.06
9686 C 85.98316884062058 76.34257214627041 3.6324312989298644 C 0.0 **** -0.24
9687 H 87.02096487954213 76.67296480214284 3.594376374619074 H 0.0 **** 0.06
9688 H 85.39086479844082 76.92643449641588 2.927188176572752 H 0.0 **** 0.06
9689 H 85.59368511715411 76.48439656894854 4.640450832957924 H 0.0 **** 0.06
9690 H 85.9276835324564 75.2867229747427 3.3664161344641723 H 0.0 **** 0.06
9691 C 39.58730632437113 49.863937963371626 11.383600854989027 C 0.0 **** -0.24
9692 H 38.50580474806458 49.83654990813912 11.521177858678456 H 0.0 **** 0.06
9693 H 40.018404313224494 50.62033294382667 12.039918858489955 H 0.0 **** 0.06
9694 H 39.81459607382237 50.11082004989481 10.345991681061705 H 0.0 **** 0.06
9695 H 40.009023644289414 48.888549261679 11.625973511478946 H 0.0 **** 0.06
9696 C 74.93061353334059 115.66922387503524 31.263511191621788 C 0.0 **** -0.24
9697 H 74.3765515111995 116.46395710680147 30.7644666356611 H 0.0 **** 0.06
9698 H 75.16141232093045 114.88149851904117 30.54604353618425 H 0.0 **** 0.06
9699 H 74.32566724228278 115.25877091454592 32.07278589845562 H 0.0 **** 0.06
9700 H 75.85659996787743 116.07362649152898 31.67112463894491 H 0.0 **** 0.06
9701 C 8.69189831560334 80.1981338200732 34.06008471447922 C 0.0 **** -0.24
9702 H 8.058666425413548 80.6281418915199 34.835478489575905 H 0.0 **** 0.06
9703 H 9.730058637468574 80.20849146594432 34.39126135061565 H 0.0 **** 0.06
9704 H 8.595473043770426 80.78419453645296 33.145601699215234 H 0.0 **** 0.06
9705 H 8.381947645198863 79.17098705119213 33.86682001096878 H 0.0 **** 0.06
9706 C 20.449595905520596 75.36086734845901 102.72505256336711 C 0.0 **** -0.24
9707 H 19.904336261555272 75.844970288013 103.53619402935459 H 0.0 **** 0.06
9708 H 21.358497778658148 74.9066460540308 103.12078553030369 H 0.0 **** 0.06
9709 H 20.712046229099343 76.10308640774753 101.9708723129539 H 0.0 **** 0.06
9710 H 19.823817440040358 74.59080697293217 102.27495434301036 H 0.0 **** 0.06
9711 C 73.34821348808612 74.30658882728451 87.19095062860447 C 0.0 **** -0.24
9712 H 73.76577223344646 74.95361414362213 86.41876986754332 H 0.0 **** 0.06
9713 H 74.0277449652026 74.27129772214369 88.04285888364922 H 0.0 **** 0.06
9714 H 73.21686822470383 73.3017336446928 86.78961958055723 H 0.0 **** 0.06
9715 H 72.38287043180605 74.69845729139854 87.51048777670243 H 0.0 **** 0.06
9716 C 23.832123871461647 43.5208107335842 28.946647185553246 C 0.0 **** -0.24
9717 H 24.814917277547266 43.05147341404572 28.890443998032552 H 0.0 **** 0.06
9718 H 23.153828975246597 43.02765684114614 28.250437881448576 H 0.0 **** 0.06
9719 H 23.918126507625175 44.57546653818281 28.68644001694699 H 0.0 **** 0.06
9720 H 23.44404256791796 43.42733798445347 29.961597899727863 H 0.0 **** 0.06
9721 C 30.520581003827658 73.91048479249866 28.30817663568905 C 0.0 **** -0.24
9722 H 31.236338326759153 73.81277376081056 29.1245142784702 H 0.0 **** 0.06
9723 H 29.578478980353225 74.29908200791215 28.695795198405335 H 0.0 **** 0.06
9724 H 30.351888329202552 72.93375465079347 27.853827447410595 H 0.0 **** 0.06
9725 H 30.916339572407992 74.59646238118498 27.559249382075166 H 0.0 **** 0.06
9726 C 52.0565675418206 33.57628605878688 21.988937521816 C 0.0 **** -0.24
9727 H 51.84025361235271 34.63751808711466 21.85784171199424 H 0.0 **** 0.06
9728 H 52.201317009002224 33.11233516559038 21.01329348398488 H 0.0 **** 0.06
9729 H 51.22254480422697 33.096567095847604 22.499919760164858 H 0.0 **** 0.06
9730 H 52.962533154290895 33.46224633169467 22.58402437927161 H 0.0 **** 0.06
9731 C 78.40988270192662 29.378366386782247 67.26985091307156 C 0.0 **** -0.24
9732 H 78.21111516144771 28.380257427307185 67.65868125283936 H 0.0 **** 0.06
9733 H 78.22461356629998 30.11662388171186 68.05035291281564 H 0.0 **** 0.06
9734 H 77.75460085029019 29.575036471637134 66.4204453661936 H 0.0 **** 0.06
9735 H 79.44962976718227 29.441989612159716 66.94777437480158 H 0.0 **** 0.06
9736 C 51.311714337957575 14.231157258265767 116.64247065542685 C 0.0 **** -0.24
9737 H 51.00730203126438 13.390157559856135 117.26500398796863 H 0.0 **** 0.06
9738 H 50.74064161829602 15.116542835811288 116.9223679083193 H 0.0 **** 0.06
9739 H 51.12524585518326 13.994428107381566 115.59454843003488 H 0.0 **** 0.06
9740 H 52.375002831169695 14.42364158407949 116.7875172868754 H 0.0 **** 0.06
9741 C 44.539534111099584 6.628791285787315 82.56431661862555 C 0.0 **** -0.24
9742 H 45.4994068192961 6.13059739939186 82.70088297737897 H 0.0 **** 0.06
9743 H 44.617766354902926 7.66536204602167 82.8929272255597 H 0.0 **** 0.06
9744 H 43.7781712822956 6.117152113640316 83.15227161345163 H 0.0 **** 0.06
9745 H 44.26347818270648 6.60114607166733 81.51034461691611 H 0.0 **** 0.06
9746 C 7.404382944559217 28.08447962886973 85.94265676276484 C 0.0 **** -0.24
9747 H 8.139303775270832 28.88222467317388 86.05289911843283 H 0.0 **** 0.06
9748 H 7.568761029224703 27.33108519173581 86.71331156254053 H 0.0 **** 0.06
9749 H 7.511134604735801 27.62678597023725 84.95904060669773 H 0.0 **** 0.06
9750 H 6.401482725886993 28.498091064361347 86.0454372300918 H 0.0 **** 0.06
9751 C 95.34695291112504 62.6057185517729 80.2667718450663 C 0.0 **** -0.24
9752 H 95.08573133598861 62.17306165387898 79.30069138154141 H 0.0 **** 0.06
9753 H 96.1329595195254 62.00969874213458 80.73121685098315 H 0.0 **** 0.06
9754 H 94.46778616811173 62.613700008836055 80.91011793860756 H 0.0 **** 0.06
9755 H 95.70181901401287 63.62629844998734 80.12340222627247 H 0.0 **** 0.06
9756 C 15.522362570521182 78.4795029162149 121.26464943929807 C 0.0 **** -0.24
9757 H 15.260452490237128 78.22277316893965 122.29128281934241 H 0.0 **** 0.06
9758 H 14.979590989720066 79.37565966336442 120.96433258528266 H 0.0 **** 0.06
9759 H 15.255416874054873 77.65383565527097 120.60506722704686 H 0.0 **** 0.06
9760 H 16.594855348978825 78.66396626403272 121.19822147270854 H 0.0 **** 0.06
9761 C 82.10291975412838 75.55328149132089 2.2519739038449416 C 0.0 **** -0.24
9762 H 82.08626831381565 75.3535557340619 3.3227154225986624 H 0.0 **** 0.06
9763 H 81.12486184055277 75.33099807314346 1.8252996412624043 H 0.0 **** 0.06
9764 H 82.85807582560142 74.9268714833016 1.77723299070243 H 0.0 **** 0.06
9765 H 82.34297956735548 76.60408501384373 2.082405305318275 H 0.0 **** 0.06
9766 C 0.7851202074518397 119.25756533432694 63.82388593138885 C 0.0 **** -0.24
9767 H 0.0032925033438999662 118.85491335143335 64.46759932356912 H 0.0 **** 0.06
9768 H 0.38002006638740227 119.43377489700833 62.82701771574373 H 0.0 **** 0.06
9769 H 1.6082503130237455 118.54529522413145 63.76154585565639 H 0.0 **** 0.06
9770 H 1.1496117296688908 120.19750425340584 64.2395022712411 H 0.0 **** 0.06
9771 C 96.54106705448226 1.856920879981658 58.21102721089664 C 0.0 **** -0.24
9772 H 96.18593416267746 0.8310809203279916 58.31140728853641 H 0.0 **** 0.06
9773 H 96.83610028988792 2.2368860313888774 59.18998027182652 H 0.0 **** 0.06
9774 H 95.74304355139486 2.478738278226615 57.805476063054094 H 0.0 **** 0.06
9775 H 97.3980021595699 1.8806626819230416 57.538822921328496 H 0.0 **** 0.06
9776 C 78.20734820043737 8.523839933591802 70.52896107259221 C 0.0 **** -0.24
9777 H 78.08085094549531 7.452313500994819 70.68473557767464 H 0.0 **** 0.06
9778 H 78.17811845798616 8.741380641656377 69.46130954276313 H 0.0 **** 0.06
9779 H 79.16673228060617 8.839647312774275 70.93893426952309 H 0.0 **** 0.06
9780 H 77.40268848302497 9.061143191485996 71.03134349946203 H 0.0 **** 0.06
9781 C 57.11257150828512 48.21517720838449 43.731191791180464 C 0.0 **** -0.24
9782 H 56.786876640131446 48.90101812020086 42.94872373461848 H 0.0 **** 0.06
9783 H 56.83531929262387 47.1964016188648 43.45952533660372 H 0.0 **** 0.06
9784 H 56.632400243933084 48.48453040278579 44.67187905984534 H 0.0 **** 0.06
9785 H 58.19507980567909 48.28071457852346 43.843743141335295 H 0.0 **** 0.06
9786 C 106.90459817964299 10.271630800358224 57.471554726035976 C 0.0 **** -0.24
9787 H 107.26840116424424 9.67998721981769 56.63135450950975 H 0.0 **** 0.06
9788 H 106.14060297653202 9.708207601153816 58.0076673842693 H 0.0 **** 0.06
9789 H 106.47813899612473 11.203841686062987 57.10252288327604 H 0.0 **** 0.06
9790 H 107.73376200682503 10.492322903463418 58.14459449717964 H 0.0 **** 0.06
9791 C 0.9605276417058803 91.74568563415045 45.22900504708201 C 0.0 **** -0.24
9792 H 1.4568428552776425 92.67080373823524 44.93270969618382 H 0.0 **** 0.06
9793 H 0.17293463085442795 91.97102658668976 45.947246489397145 H 0.0 **** 0.06
9794 H 1.6880765711492813 91.07468317395379 45.684797038170444 H 0.0 **** 0.06
9795 H 0.5265424110915831 91.26890698463058 44.35048980431006 H 0.0 **** 0.06
9796 C 20.486874283171574 116.5529420762535 72.64430759393386 C 0.0 **** -0.24
9797 H 21.48214590903339 116.24753875805274 72.96798391524442 H 0.0 **** 0.06
9798 H 19.883092256454972 116.80782682711016 73.51654224132685 H 0.0 **** 0.06
9799 H 20.013106908853075 115.73385662583031 72.10251549987856 H 0.0 **** 0.06
9800 H 20.567563971521935 117.42186749487162 71.99192590592264 H 0.0 **** 0.06
9801 C 75.84445637572222 81.64956584340484 63.6520216750771 C 0.0 **** -0.24
9802 H 75.45290119520632 80.68841982748867 63.98527534702627 H 0.0 **** 0.06
9803 H 76.80397095890825 81.49979904137663 63.15757271957134 H 0.0 **** 0.06
9804 H 75.9762807195352 82.30609428963928 64.51235178445154 H 0.0 **** 0.06
9805 H 75.141033025718 82.10474801642067 62.95254395195291 H 0.0 **** 0.06
9806 C 122.59442026608377 97.17487910094107 102.20986257328977 C 0.0 **** -0.24
9807 H 122.5220887305336 98.2514863802268 102.36356369620205 H 0.0 **** 0.06
9808 H 123.45014761427221 96.78595723246531 102.76220181963427 H 0.0 **** 0.06
9809 H 122.72184218826841 96.96641371782613 101.14813242696968 H 0.0 **** 0.06
9810 H 121.68292017443076 96.6952372141547 102.56763962186761 H 0.0 **** 0.06
9811 C 44.46875237067614 45.75337083949819 78.99860679303038 C 0.0 **** -0.24
9812 H 43.40170186150161 45.94287421508169 79.11327058762748 H 0.0 **** 0.06
9813 H 44.74410297741409 45.84979697446667 77.94761142562555 H 0.0 **** 0.06
9814 H 44.6979030941314 44.7453743655351 79.34342435076269 H 0.0 **** 0.06
9815 H 45.03218170784956 46.47621576237921 79.58933327274434 H 0.0 **** 0.06
9816 C 93.08115330905409 27.52407477146449 20.245773335832013 C 0.0 **** -0.24
9817 H 93.015601707597 28.265756123151547 21.041167470897307 H 0.0 **** 0.06
9818 H 93.26240776940946 28.025559313379247 19.295729579839985 H 0.0 **** 0.06
9819 H 92.14594401335401 26.96634071369708 20.19070558371513 H 0.0 **** 0.06
9820 H 93.90142904448047 26.837133558871862 20.45695024295918 H 0.0 **** 0.06
9821 C 117.2670869227985 72.68895991212807 96.4553774163125 C 0.0 **** -0.24
9822 H 116.94779003997958 72.81961567743704 97.48905322022728 H 0.0 **** 0.06
9823 H 117.97910915741527 73.4712357070492 96.19326098939985 H 0.0 **** 0.06
9824 H 116.39983682035304 72.75137087786408 95.79761355903489 H 0.0 **** 0.06
9825 H 117.74006756079278 71.7129373333112 96.34197357403474 H 0.0 **** 0.06
9826 C 52.011937397441756 112.06434938616266 57.80402743109238 C 0.0 **** -0.24
9827 H 51.7344221415803 113.04274594724157 57.41055489531655 H 0.0 **** 0.06
9828 H 51.27843355963664 111.75053819728635 58.54701384470394 H 0.0 **** 0.06
9829 H 52.99597539364499 112.1257329882034 58.26863414275002 H 0.0 **** 0.06
9830 H 52.038902509002746 111.33980398186833 56.99089343170556 H 0.0 **** 0.06
9831 C 73.9666646467318 79.67910187385073 89.63622082221386 C 0.0 **** -0.24
9832 H 73.35032197547869 80.49926676664495 90.0039195709013 H 0.0 **** 0.06
9833 H 74.1105167330303 78.94718233672126 90.43019086220201 H 0.0 **** 0.06
9834 H 74.9352965005472 80.06725750217223 89.31927802077846 H 0.0 **** 0.06
9835 H 73.47128193883074 79.2047832509918 88.78902725119747 H 0.0 **** 0.06
9836 C 41.83901527036333 72.68949002623157 97.1456829993316 C 0.0 **** -0.24
9837 H 42.816990350634185 73.1609293331625 97.23682459162626 H 0.0 **** 0.06
9838 H 41.23164495319617 72.94304417723774 98.0158087616046 H 0.0 **** 0.06
9839 H 41.9595668026889 71.60800605235133 97.09062103758691 H 0.0 **** 0.06
9840 H 41.34547298202624 73.04707121875421 96.24214560982938 H 0.0 **** 0.06
9841 C 68.27809622127836 74.79395589554579 56.30885920099752 C 0.0 **** -0.24
9842 H 67.98093680110085 75.84233130229245 56.30382167471083 H 0.0 **** 0.06
9843 H 67.39066976583806 74.16489212245045 56.237822623803254 H 0.0 **** 0.06
9844 H 68.80903488913094 74.57146027473769 57.233650462510155 H 0.0 **** 0.06
9845 H 68.93140092441271 74.59830194618323 55.45855065310306 H 0.0 **** 0.06
9846 C 17.565775809063126 78.26435972688489 85.10775417248772 C 0.0 **** -0.24
9847 H 17.59771192142179 77.92472724585292 84.07281844692994 H 0.0 **** 0.06
9848 H 16.976890442518368 79.1795125210163 85.17228739816352 H 0.0 **** 0.06
9849 H 18.580248152874674 78.458424339972 85.45678418333557 H 0.0 **** 0.06
9850 H 17.109557344082788 77.49271854562716 85.72886189069175 H 0.0 **** 0.06
9851 C 93.87595664701865 8.468165648945494 24.49239519798931 C 0.0 **** -0.24
9852 H 93.01258493132758 9.006283168985902 24.884878313033823 H 0.0 **** 0.06
9853 H 93.53956519794525 7.559756832997003 23.992398838329223 H 0.0 **** 0.06
9854 H 94.54328206436998 8.204537051628826 25.31326114886474 H 0.0 **** 0.06
9855 H 94.40569405599223 9.100587838540232 23.780904152214475 H 0.0 **** 0.06
9856 C 109.53996389586524 95.65605333078543 119.61225406991299 C 0.0 **** -0.24
9857 H 109.77603126543886 95.57115787586122 118.55083701335188 H 0.0 **** 0.06
9858 H 110.10059429162965 94.90654831977213 120.17007830611021 H 0.0 **** 0.06
9859 H 108.47145302161721 95.49723108510659 119.7608985683957 H 0.0 **** 0.06
9860 H 109.81150358702195 96.65111357986655 119.96560582273116 H 0.0 **** 0.06
9861 C 6.415433663614465 74.95348499517479 40.2623669460136 C 0.0 **** -0.24
9862 H 7.262648482884856 74.3031388135397 40.481193478478446 H 0.0 **** 0.06
9863 H 6.150432340340245 75.5175486451626 41.156544007811675 H 0.0 **** 0.06
9864 H 5.565055010354541 74.34736248524837 39.94909580212496 H 0.0 **** 0.06
9865 H 6.684730348643114 75.64314930291516 39.46217785142866 H 0.0 **** 0.06
9866 C 16.173958279697914 3.0086058442928447 86.54475024031677 C 0.0 **** -0.24
9867 H 16.80090836528413 3.870729323337514 86.77132650024737 H 0.0 **** 0.06
9868 H 16.349318490966326 2.693093996566148 85.5150001040837 H 0.0 **** 0.06
9869 H 15.125716615957415 3.2784910237020313 86.66823087162533 H 0.0 **** 0.06
9870 H 16.422298814338475 2.191130247603013 87.22215469595423 H 0.0 **** 0.06
9871 C 94.78216986570004 96.26508875185726 105.76418016848714 C 0.0 **** -0.24
9872 H 95.74086227282712 95.78447336818942 105.96287071118775 H 0.0 **** 0.06
9873 H 94.81669090236969 96.75704995331404 104.79247313131057 H 0.0 **** 0.06
9874 H 94.58078139224244 97.00426853398159 106.53980255445026 H 0.0 **** 0.06
9875 H 93.99328910681987 95.51364600701521 105.76431132108581 H 0.0 **** 0.06
9876 C 101.26289037120176 23.996556128722233 111.87791817777659 C 0.0 **** -0.24
9877 H 101.60421590597957 23.105159717266247 111.3509167678375 H 0.0 **** 0.06
9878 H 100.84150711045044 23.710005982956076 112.84135384165569 H 0.0 **** 0.06
9879 H 100.50123707461702 24.501324956449707 111.28371719428597 H 0.0 **** 0.06
9880 H 102.10570035509107 24.670272835046404 112.03497645881453 H 0.0 **** 0.06
9881 C 28.087008571137716 121.76136356104965 78.25022985395663 C 0.0 **** -0.24
9882 H 27.111512450026765 121.29175241175813 78.3816980559107 H 0.0 **** 0.06
9883 H 28.00028424445867 122.83358247599034 78.42931274630507 H 0.0 **** 0.06
9884 H 28.438017163337094 121.5890047058073 77.23284226006581 H 0.0 **** 0.06
9885 H 28.79543671590241 121.33007389105603 78.95747656627549 H 0.0 **** 0.06
9886 C 72.14760350335737 65.40172007066312 118.40246989330923 C 0.0 **** -0.24
9887 H 72.79770020523006 65.97660421510537 119.06081291974189 H 0.0 **** 0.06
9888 H 72.73785360484516 64.97814843285832 117.58907018332789 H 0.0 **** 0.06
9889 H 71.37796160148127 66.05514612495855 117.99079295448959 H 0.0 **** 0.06
9890 H 71.67692988500181 64.59712056405962 118.96779646323193 H 0.0 **** 0.06
9891 C 33.61450699345352 95.1645153666617 82.0691887499529 C 0.0 **** -0.24
9892 H 34.56701916728281 95.55958996224612 81.71385392677206 H 0.0 **** 0.06
9893 H 33.52903572096682 95.3336496211704 83.14263339212704 H 0.0 **** 0.06
9894 H 33.565665218334516 94.09582844186042 81.8639698843096 H 0.0 **** 0.06
9895 H 32.79752053950028 95.67139840922903 81.55543408318835 H 0.0 **** 0.06
9896 C 78.16627580918225 69.58937603427825 111.91436761555016 C 0.0 **** -0.24
9897 H 79.1693248915835 69.85101556696745 111.57532263191418 H 0.0 **** 0.06
9898 H 77.54247552696174 69.35289432484547 111.051546187595 H 0.0 **** 0.06
9899 H 77.73491463602241 70.43056589092157 112.45516349467295 H 0.0 **** 0.06
9900 H 78.22085473480325 68.72240776679095 112.57269374127313 H 0.0 **** 0.06
9901 C 121.04842714134716 52.18473862362178 119.01665408837198 C 0.0 **** -0.24
9902 H 121.2494752008271 53.244363682325115 119.17486455080268 H 0.0 **** 0.06
9903 H 121.12300987738656 51.957058906256734 117.95299788085327 H 0.0 **** 0.06
9904 H 120.0450043661006 51.948096471356564 119.3693682904476 H 0.0 **** 0.06
9905 H 121.77742692307541 51.5904542492907 119.56780338324933 H 0.0 **** 0.06
9906 C 93.80833884954907 101.91050773978307 17.678568052461358 C 0.0 **** -0.24
9907 H 93.36291799080402 101.47518706127073 18.57369896669468 H 0.0 **** 0.06
9908 H 93.54926516638594 102.96841247439212 17.62167686592028 H 0.0 **** 0.06
9909 H 93.4271065735906 101.39482471050377 16.79677605069847 H 0.0 **** 0.06
9910 H 94.89124010410885 101.80317745858162 17.723032704544522 H 0.0 **** 0.06
9911 C 44.61510978203921 53.35780393353682 116.06791653430842 C 0.0 **** -0.24
9912 H 44.01224992955882 52.747973998652675 116.74016837011422 H 0.0 **** 0.06
9913 H 44.05368052817401 53.55486010898547 115.15416753480352 H 0.0 **** 0.06
9914 H 45.5347639019418 52.82627675728394 115.82270987258339 H 0.0 **** 0.06
9915 H 44.85918158374692 54.301493143293705 116.55517594051058 H 0.0 **** 0.06
9916 C 78.64073275125338 57.243287642802414 65.3454910257883 C 0.0 **** -0.24
9917 H 79.66481564337249 57.56744484767418 65.16004973635751 H 0.0 **** 0.06
9918 H 78.27636619629214 57.70184129493168 66.26573327096992 H 0.0 **** 0.06
9919 H 78.6160758287186 56.15840013710246 65.44557218079484 H 0.0 **** 0.06
9920 H 78.0068585184415 57.54586213303401 64.5127154287776 H 0.0 **** 0.06
9921 C 48.59259497748184 52.850736775609846 42.4854674505512 C 0.0 **** -0.24
9922 H 49.120511729645635 52.856461516259316 41.53165862260188 H 0.0 **** 0.06
9923 H 47.60188017345514 52.414539345973125 42.34926086878985 H 0.0 **** 0.06
9924 H 48.49259311395406 53.87266576186937 42.85060835379879 H 0.0 **** 0.06
9925 H 49.15430117216676 52.259319413864716 43.20815047509125 H 0.0 **** 0.06
9926 C 62.31684560780735 17.582826119165816 30.342503567317664 C 0.0 **** -0.24
9927 H 61.62188134216723 17.931480346277965 29.578343865902866 H 0.0 **** 0.06
9928 H 62.68850156347088 18.435062095872212 30.91138740217366 H 0.0 **** 0.06
9929 H 63.15345756416923 17.071240879030057 29.86509055228899 H 0.0 **** 0.06
9930 H 61.804133617282275 16.892587954787274 31.01300626186398 H 0.0 **** 0.06
9931 C 102.1926950601684 14.149984017167867 74.37795711300026 C 0.0 **** -0.24
9932 H 102.49545269471139 13.772937652153303 75.35457677038184 H 0.0 **** 0.06
9933 H 102.47188080504654 13.430138136903906 73.6079276256446 H 0.0 **** 0.06
9934 H 102.69103513976151 15.100545787184956 74.18526651185923 H 0.0 **** 0.06
9935 H 101.11241160115404 14.296314492429417 74.36405754411541 H 0.0 **** 0.06
9936 C 109.16249208796035 51.37223548038094 117.80545566894156 C 0.0 **** -0.24
9937 H 109.6364093266235 52.279581861102514 118.18170186446605 H 0.0 **** 0.06
9938 H 108.2620309159019 51.16637018912523 118.3851377818535 H 0.0 **** 0.06
9939 H 109.85431938308477 50.535551066471754 117.89935071585558 H 0.0 **** 0.06
9940 H 108.89717516113456 51.50909731001059 116.75713181759028 H 0.0 **** 0.06
9941 C 12.87810248593729 23.083701338385517 35.81611689008551 C 0.0 **** -0.24
9942 H 12.647382486352086 24.12485670382415 35.59152193829988 H 0.0 **** 0.06
9943 H 11.959534607029198 22.55516095460939 36.072103753454996 H 0.0 **** 0.06
9944 H 13.570001177501041 23.03747490058275 36.65627066718943 H 0.0 **** 0.06
9945 H 13.333556155369365 22.616647352111798 34.94322535876728 H 0.0 **** 0.06
9946 C 59.945924344469695 65.90504108261925 44.27110220717927 C 0.0 **** -0.24
9947 H 60.6823424480906 65.83542640417406 45.07171029102713 H 0.0 **** 0.06
9948 H 60.331986746882386 66.54290228646866 43.47619528326115 H 0.0 **** 0.06
9949 H 59.02187203035387 66.33039373851688 44.66302003584033 H 0.0 **** 0.06
9950 H 59.74740072165252 64.90868847664422 43.87412352383794 H 0.0 **** 0.06
9951 C 85.47786395619727 47.251666590676194 96.98722985084711 C 0.0 **** -0.24
9952 H 84.8036853429576 47.8000847738449 96.32911144246117 H 0.0 **** 0.06
9953 H 85.27771605688733 47.527709769975104 98.02227385055662 H 0.0 **** 0.06
9954 H 86.50912045818646 47.50037216994414 96.7373045127357 H 0.0 **** 0.06
9955 H 85.32059423942763 46.18108184126871 96.85773608771188 H 0.0 **** 0.06
9956 C 96.78126123012908 0.7806397623720898 54.74833343391526 C 0.0 **** -0.24
9957 H 97.17193903864913 0.22653686876299162 55.602740859949904 H 0.0 **** 0.06
9958 H 97.58575901332637 0.9599493893983606 54.03409637132734 H 0.0 **** 0.06
9959 H 96.37634713430683 1.733741194564658 55.087700981143485 H 0.0 **** 0.06
9960 H 95.99301270064751 0.19984373123239152 54.27012185625682 H 0.0 **** 0.06
9961 C 20.227974814474436 4.413498497645463 46.10340885834171 C 0.0 **** -0.24
9962 H 20.148205737312963 3.3291376736977156 46.037125051595126 H 0.0 **** 0.06
9963 H 20.338561585331036 4.831437165535689 45.10242983391322 H 0.0 **** 0.06
9964 H 21.09832344293858 4.677478070906091 46.705365882722276 H 0.0 **** 0.06
9965 H 19.32832202696892 4.816780844568754 46.568650042761874 H 0.0 **** 0.06
9966 C 121.40906756336943 33.87579265592024 10.27606253107217 C 0.0 **** -0.24
9967 H 121.37248317238983 34.51775754209043 11.156145362886434 H 0.0 **** 0.06
9968 H 122.42292140391817 33.869551876253006 9.874591948993213 H 0.0 **** 0.06
9969 H 120.72113518839723 34.25516768438223 9.521408514226948 H 0.0 **** 0.06
9970 H 121.12173054129532 32.86192628379475 10.553969931224515 H 0.0 **** 0.06
9971 C 97.73640254233749 52.782496599547414 12.964265109676916 C 0.0 **** -0.24
9972 H 98.53480217442836 52.1104082800871 13.27628331147747 H 0.0 **** 0.06
9973 H 96.82827978493279 52.20700195238459 12.781918859506163 H 0.0 **** 0.06
9974 H 98.03079438569347 53.297929277333594 12.05010006844526 H 0.0 **** 0.06
9975 H 97.54998169185444 53.515245818784564 13.75036183522883 H 0.0 **** 0.06
9976 C 81.20952961375997 66.92433549867846 5.893867016781229 C 0.0 **** -0.24
9977 H 80.75628377925759 66.19776428829584 5.218155746922193 H 0.0 **** 0.06
9978 H 81.73532226403248 66.3981061819691 6.691747351942791 H 0.0 **** 0.06
9979 H 80.43151331671336 67.55435374583098 6.325315500800258 H 0.0 **** 0.06
9980 H 81.9141359819125 67.5442459366665 5.340339247779344 H 0.0 **** 0.06
9981 C 111.6424629856131 46.15270218746514 18.90793453907787 C 0.0 **** -0.24
9982 H 111.76621851163529 45.62219082829702 17.96353344460846 H 0.0 **** 0.06
9983 H 111.52941757240447 47.21977598243035 18.713318387399 H 0.0 **** 0.06
9984 H 112.52031067081043 45.98771312711165 19.533802145804117 H 0.0 **** 0.06
9985 H 110.75619640759308 45.78026813822029 19.420984752462147 H 0.0 **** 0.06
9986 C 72.21670507022853 36.50710631295828 61.68421374058582 C 0.0 **** -0.24
9987 H 71.33871598326994 37.02538071243893 62.07024218614609 H 0.0 **** 0.06
9988 H 72.49802233662069 35.70869013700285 62.37052876210876 H 0.0 **** 0.06
9989 H 73.0422050407513 37.21307649036055 61.58945047461171 H 0.0 **** 0.06
9990 H 71.9881423577879 36.0837090039973 60.70677378480036 H 0.0 **** 0.06
9991 C 92.6382319991547 92.18408482191734 79.59507486303264 C 0.0 **** -0.24
9992 H 92.72420231519595 93.25751615038487 79.76583040744532 H 0.0 **** 0.06
9993 H 92.38948849152351 91.6862506608091 80.53300237511036 H 0.0 **** 0.06
9994 H 93.58645869387482 91.79981061065467 79.21859296518471 H 0.0 **** 0.06
9995 H 91.85331412083747 91.99541107277969 78.86370752322469 H 0.0 **** 0.06
9996 C 58.82515808861458 112.3724304572361 26.933491139850112 C 0.0 **** -0.24
9997 H 58.71421264873562 113.12023296253057 26.14810609722008 H 0.0 **** 0.06
9998 H 58.313079046233156 112.71129157847639 27.834066135691664 H 0.0 **** 0.06
9999 H 59.88371893588235 112.22704897505224 27.149438583707337 H 0.0 **** 0.06
10000 H 58.390392718363614 111.42931856621982 26.601325213472947 H 0.0 **** 0.06
10001 C 55.780856525608726 30.084503729322336 108.72553223598118 C 0.0 **** -0.24
10002 H 55.96769556070652 30.342877339080758 107.68274441679603 H 0.0 **** 0.06
10003 H 54.71659736986933 30.178810950850817 108.93733788256739 H 0.0 **** 0.06
10004 H 56.34242815950532 30.75886158321407 109.37313936434538 H 0.0 **** 0.06
10005 H 56.099004328127506 29.05749706473287 108.90698046351011 H 0.0 **** 0.06
10006 C 16.506376078418704 73.39109640484898 45.88308873172136 C 0.0 **** -0.24
10007 H 17.313085543313868 72.82378102098781 46.34798684964218 H 0.0 **** 0.06
10008 H 15.609718851586578 73.31658130531594 46.497903675876074 H 0.0 **** 0.06
10009 H 16.303119943052838 72.9873487865101 44.891579833634296 H 0.0 **** 0.06
10010 H 16.802162049132907 74.43680852975075 45.79603146789819 H 0.0 **** 0.06
10011 C 33.54550108004125 17.258294431969393 65.91971712689568 C 0.0 **** -0.24
10012 H 34.03617548850221 16.41271059788305 65.43690062230874 H 0.0 **** 0.06
10013 H 33.805871096390405 17.27349876108124 66.97793988158438 H 0.0 **** 0.06
10014 H 32.465133485903635 17.1606771300324 65.81163442768005 H 0.0 **** 0.06
10015 H 33.87594097607561 18.18520468905576 65.45078964045811 H 0.0 **** 0.06
10016 C 90.32479286556224 83.69683717553409 45.35295515967948 C 0.0 **** -0.24
10017 H 89.95436208552098 84.53574736676524 44.76272984075757 H 0.0 **** 0.06
10018 H 89.80796185313463 82.78558090314885 45.05262065029558 H 0.0 **** 0.06
10019 H 90.14243276361532 83.88859957067342 46.40989936522834 H 0.0 **** 0.06
10020 H 91.39548770810009 83.5804040031978 45.18393438442149 H 0.0 **** 0.06
10021 C 97.788136442233 105.460636392028 108.12602928544715 C 0.0 **** -0.24
10022 H 96.73165064092098 105.42779537510492 108.39219530016618 H 0.0 **** 0.06
10023 H 98.27788685852221 106.25814114761175 108.68622203065544 H 0.0 **** 0.06
10024 H 97.88890075419476 105.65171421249295 107.05752754776651 H 0.0 **** 0.06
10025 H 98.2544858078607 104.50623278989937 108.37063543414632 H 0.0 **** 0.06
10026 C 72.57788144804337 82.32193089521195 105.72502885883276 C 0.0 **** -0.24
10027 H 72.39766361982151 83.34893536996236 105.40573818969943 H 0.0 **** 0.06
10028 H 71.7402535455393 81.97875317399092 106.33156214861964 H 0.0 **** 0.06
10029 H 73.49386643335544 82.28012870669818 106.31312675133495 H 0.0 **** 0.06
10030 H 72.67829395232465 81.68236696386523 104.84876726993019 H 0.0 **** 0.06
10031 C 113.47415969739535 91.60266166924055 80.25309498950531 C 0.0 **** -0.24
10032 H 112.44329214342804 91.93866146767519 80.3645729948168 H 0.0 **** 0.06
10033 H 114.05940717658996 91.93827532322942 81.10968125858409 H 0.0 **** 0.06
10034 H 113.8956484595194 92.01896721144405 79.33864050880462 H 0.0 **** 0.06
10035 H 113.4978804286705 90.51341633243018 80.20123805566803 H 0.0 **** 0.06
10036 C 56.74510609414497 5.250028184157593 89.02195004437098 C 0.0 **** -0.24
10037 H 57.518623761246914 6.015132911899485 89.08225146699016 H 0.0 **** 0.06
10038 H 57.14841143498424 4.298827074347011 89.36988021217687 H 0.0 **** 0.06
10039 H 56.41367593612162 5.148787610608611 87.98888446939708 H 0.0 **** 0.06
10040 H 55.90075868164533 5.538475881711374 89.64841914092489 H 0.0 **** 0.06
10041 C 81.36431668689599 94.84348238811455 106.5400546804157 C 0.0 **** -0.24
10042 H 82.383696247861 95.23102372167685 106.54369106036543 H 0.0 **** 0.06
10043 H 80.74051649200163 95.4566626927172 107.19054247299522 H 0.0 **** 0.06
10044 H 81.36684842555431 93.81452488280149 106.90189340124113 H 0.0 **** 0.06
10045 H 80.96915338541751 94.87029709950872 105.5246315875867 H 0.0 **** 0.06
10046 C 104.5439419192474 42.996068532655265 109.29982216362754 C 0.0 **** -0.24
10047 H 104.4640278606364 43.15570408702889 108.2250118056466 H 0.0 **** 0.06
10048 H 105.59518711268674 42.99493893519605 109.5891479950703 H 0.0 **** 0.06
10049 H 104.09450418854681 42.038211814455906 109.55946094270027 H 0.0 **** 0.06
10050 H 104.02368382203463 43.796544913018835 109.82591076008617 H 0.0 **** 0.06
10051 C 111.35591008955744 86.88088012373586 20.359422618091116 C 0.0 **** -0.24
10052 H 111.06185459547353 85.84609149942852 20.180674023649004 H 0.0 **** 0.06
10053 H 110.73996793406329 87.54391404457593 19.752073956161695 H 0.0 **** 0.06
10054 H 112.40419053888911 87.01137864674635 20.0908386242414 H 0.0 **** 0.06
10055 H 111.21934637798873 87.12075537554264 21.414475419371172 H 0.0 **** 0.06
10056 C 23.224441878840707 87.00119330194997 98.26437158523797 C 0.0 **** -0.24
10057 H 22.810040793052394 87.6570062431638 99.03042986410497 H 0.0 **** 0.06
10058 H 23.943201900144686 87.55632449874864 97.66056980864988 H 0.0 **** 0.06
10059 H 22.419788078246597 86.63526227931396 97.62639126178874 H 0.0 **** 0.06
10060 H 23.724143792353175 86.15674256689178 98.73951904499327 H 0.0 **** 0.06
10061 C 11.572529904870308 35.064512954901375 115.0873385951573 C 0.0 **** -0.24
10062 H 10.51606514530765 34.99640061387845 115.34543355667766 H 0.0 **** 0.06
10063 H 12.176738948316313 34.77914566243635 115.95002290324909 H 0.0 **** 0.06
10064 H 11.810789451987304 36.08751280782329 114.79974565093735 H 0.0 **** 0.06
10065 H 11.786945672665851 34.393629242385884 114.25587421685461 H 0.0 **** 0.06
10066 C 42.7204858392291 33.16276196171619 37.36171052611775 C 0.0 **** -0.24
10067 H 42.54379126580441 32.21418413478241 37.87014669954581 H 0.0 **** 0.06
10068 H 42.565579833199884 33.98363087792434 38.06146008537425 H 0.0 **** 0.06
10069 H 42.02655018971585 33.26059295129929 36.52672995598863 H 0.0 **** 0.06
10070 H 43.74408767712315 33.189958828763224 36.98877124399118 H 0.0 **** 0.06
10071 C 30.610355498004424 67.73591958513262 58.48944255165722 C 0.0 **** -0.24
10072 H 29.679176557544963 67.67006815574743 59.0527191560845 H 0.0 **** 0.06
10073 H 30.418882231796516 67.49960634598236 57.44245343840217 H 0.0 **** 0.06
10074 H 31.3320163458078 67.02745376053781 58.89608972551664 H 0.0 **** 0.06
10075 H 31.00998946460504 68.74694458930557 58.5664636304748 H 0.0 **** 0.06
10076 C 56.975938504889 50.95642477585233 18.31343584226059 C 0.0 **** -0.24
10077 H 58.037890103348076 51.15802364072283 18.446791463102414 H 0.0 **** 0.06
10078 H 56.843175749794966 49.93958504545401 17.942017987694754 H 0.0 **** 0.06
10079 H 56.55969408402177 51.662618383629024 17.5940629379474 H 0.0 **** 0.06
10080 H 56.46230732032865 51.065401552696954 19.267784891035035 H 0.0 **** 0.06
10081 C 82.98884093378214 23.967016823651306 18.107549346261237 C 0.0 **** -0.24
10082 H 82.6872576399962 24.330828175715965 17.124707033248228 H 0.0 **** 0.06
10083 H 82.16411875001131 24.088458540464444 18.80900304687549 H 0.0 **** 0.06
10084 H 83.85044731992025 24.53687941858476 18.455664554198023 H 0.0 **** 0.06
10085 H 83.25571485844432 22.91228593591984 18.03734094171162 H 0.0 **** 0.06
10086 C 55.558056203035164 34.631930309561085 6.595058784873913 C 0.0 **** -0.24
10087 H 54.53430189685386 34.675370948109496 6.966701300291675 H 0.0 **** 0.06
10088 H 55.55046832008898 34.361041701808965 5.538514888220419 H 0.0 **** 0.06
10089 H 56.116746815815816 33.88380887997871 7.158333416284023 H 0.0 **** 0.06
10090 H 56.03079817897023 35.6063835944143 6.717549380130407 H 0.0 **** 0.06
10091 C 121.0008926084887 38.98017172424974 120.07629018049079 C 0.0 **** -0.24
10092 H 121.00092314859502 38.33312124410716 119.19926236428287 H 0.0 **** 0.06
10093 H 121.91299126194653 39.57665647424765 120.08765258736994 H 0.0 **** 0.06
10094 H 120.95495532274879 38.36805625380051 120.97801777031252 H 0.0 **** 0.06
10095 H 120.13499457433136 39.6403116673611 120.04143468718779 H 0.0 **** 0.06
10096 C 0.7469518978201677 113.62587158916193 68.09331713641771 C 0.0 **** -0.24
10097 H 0.25767128955919816 113.04836068869798 67.30748451692614 H 0.0 **** 0.06
10098 H 0.0025756854582255073 114.21709895750232 68.6261260615633 H 0.0 **** 0.06
10099 H 1.488176740213703 114.28875666720066 67.64794966535433 H 0.0 **** 0.06
10100 H 1.2381265654002505 112.94683415718976 68.7898411539116 H 0.0 **** 0.06
10101 C 99.17101836328055 66.41782408982658 57.593448732471586 C 0.0 **** -0.24
10102 H 99.2935784552975 65.4182130248526 57.17520008458888 H 0.0 **** 0.06
10103 H 100.14819847187522 66.82535055223056 57.853768500427805 H 0.0 **** 0.06
10104 H 98.5491957648693 66.36284917465818 58.48775383694681 H 0.0 **** 0.06
10105 H 98.69232645413175 67.06283008165695 56.85664383741175 H 0.0 **** 0.06
10106 C 121.01117267956494 15.875425040671672 111.28243232241908 C 0.0 **** -0.24
10107 H 121.78052200135576 15.888961494996636 110.51074943075369 H 0.0 **** 0.06
10108 H 120.14296894983265 16.440212913346897 110.9395107610726 H 0.0 **** 0.06
10109 H 121.40239464413932 16.328365707339884 112.19362345330258 H 0.0 **** 0.06
10110 H 120.71808176165088 14.845729467941936 111.4859632598653 H 0.0 **** 0.06
10111 C 49.57137801026666 68.9343216217828 17.970781459596978 C 0.0 **** -0.24
10112 H 48.497752329339576 69.1129107424114 18.03433443238528 H 0.0 **** 0.06
10113 H 49.761723267428714 67.86105113396397 17.99221274228597 H 0.0 **** 0.06
10114 H 50.068669621277685 69.40860880685449 18.81754760987502 H 0.0 **** 0.06
10115 H 49.95551515598222 69.3541321140618 17.041318221590558 H 0.0 **** 0.06
10116 C 50.89845249561333 43.36884127985212 16.196087152379647 C 0.0 **** -0.24
10117 H 51.0516777402356 42.815218677246946 17.12109743840037 H 0.0 **** 0.06
10118 H 50.09306598955109 44.090413393465894 16.33280359035234 H 0.0 **** 0.06
10119 H 50.633904925181184 42.67643643644419 15.397060725377884 H 0.0 **** 0.06
10120 H 51.81672016510452 43.894968147428585 15.931443534418094 H 0.0 **** 0.06
10121 C 3.3646482399961712 31.84857949430303 38.06650102236617 C 0.0 **** -0.24
10122 H 2.342706561980009 31.51474257543181 38.24726680707428 H 0.0 **** 0.06
10123 H 3.4512214238774277 32.90580515425107 38.32184636894769 H 0.0 **** 0.06
10124 H 3.611682400129297 31.706595143987826 37.014000312671016 H 0.0 **** 0.06
10125 H 4.0510814120123655 31.268713414318796 38.68275089740041 H 0.0 **** 0.06
10126 C 42.81845280391477 23.042730648676837 1.970317115385214 C 0.0 **** -0.24
10127 H 43.34270217505363 22.88725929226471 1.0284879009642793 H 0.0 **** 0.06
10128 H 43.50353854293431 22.866382285524438 2.7999790657297012 H 0.0 **** 0.06
10129 H 41.9798221314027 22.350236213275473 2.038633647808453 H 0.0 **** 0.06
10130 H 42.44895455835447 24.066780565297954 2.0162834114367882 H 0.0 **** 0.06
10131 C 22.24251082920341 67.42641184916042 76.92600382979288 C 0.0 **** -0.24
10132 H 21.99461491579507 67.98572318880508 76.02307877673309 H 0.0 **** 0.06
10133 H 23.196775298148395 67.77730528004147 77.31838786472574 H 0.0 **** 0.06
10134 H 22.313675519871254 66.36571459297414 76.68731576623122 H 0.0 **** 0.06
10135 H 21.463536547533636 67.57911573496642 77.67206525107517 H 0.0 **** 0.06
10136 C 70.22099534162936 71.18245358762917 39.80663311726846 C 0.0 **** -0.24
10137 H 69.19510324035497 70.90771890086552 39.55767834570611 H 0.0 **** 0.06
10138 H 70.78230346490858 70.28588749501068 40.06924794579635 H 0.0 **** 0.06
10139 H 70.21698393237983 71.87029811603833 40.652098039287864 H 0.0 **** 0.06
10140 H 70.68559941826794 71.6648964129821 38.94771635552985 H 0.0 **** 0.06
10141 C 91.91377196134715 13.10134929639122 57.0617471485088 C 0.0 **** -0.24
10142 H 92.81834424759478 13.02820738339301 57.665507340978934 H 0.0 **** 0.06
10143 H 91.38537819775698 12.148628273792042 57.08218651937261 H 0.0 **** 0.06
10144 H 92.1832181925148 13.346459497259161 56.03408626861699 H 0.0 **** 0.06
10145 H 91.2699892259136 13.88316930607516 57.464524235040074 H 0.0 **** 0.06
10146 C 77.5969676018978 111.29296528302223 38.63764922583172 C 0.0 **** -0.24
10147 H 76.69779399180237 111.877466568289 38.83624499274749 H 0.0 **** 0.06
10148 H 77.53666553036197 110.86308046039142 37.638298549171914 H 0.0 **** 0.06
10149 H 77.67992368096333 110.49395170629253 39.37458527303638 H 0.0 **** 0.06
10150 H 78.47209278652264 111.94013587039443 38.7033022552641 H 0.0 **** 0.06
10151 C 94.82363231959101 20.72886716799775 64.42595590554151 C 0.0 **** -0.24
10152 H 94.04696192428699 20.533220758154812 65.16603480012444 H 0.0 **** 0.06
10153 H 94.64475538238085 21.697644076557424 63.95970869503633 H 0.0 **** 0.06
10154 H 94.80376560471822 19.948930665222576 63.66440779482132 H 0.0 **** 0.06
10155 H 95.79790147864739 20.7345953692261 64.91555060419395 H 0.0 **** 0.06
10156 C 43.490076693389824 64.10484752963268 26.128487250808192 C 0.0 **** -0.24
10157 H 43.3736952419473 65.17957727806237 25.99099753937415 H 0.0 **** 0.06
10158 H 44.52850200738999 63.825563785127564 25.951791026836865 H 0.0 **** 0.06
10159 H 42.84698192677078 63.577074630095986 25.423998759482203 H 0.0 **** 0.06
10160 H 43.20872113734501 63.836720475972804 27.147104987228744 H 0.0 **** 0.06
10161 C 65.4225997354863 100.31155328467739 33.467653358471836 C 0.0 **** -0.24
10162 H 66.43051077126756 100.59015467455498 33.773425622210624 H 0.0 **** 0.06
10163 H 65.387933485366 99.24052833992403 33.263117149302474 H 0.0 **** 0.06
10164 H 65.1498666135424 100.86194060261417 32.567231473067096 H 0.0 **** 0.06
10165 H 64.72065017385805 100.55118261420586 34.266465435893736 H 0.0 **** 0.06
10166 C 58.751853904382074 37.2614888597181 80.46261250680001 C 0.0 **** -0.24
10167 H 59.47812316660753 37.87572878290442 80.99611834189886 H 0.0 **** 0.06
10168 H 57.85112442041088 37.15755007942724 81.06678483508736 H 0.0 **** 0.06
10169 H 59.17884044822455 36.276880752230824 80.27337068726158 H 0.0 **** 0.06
10170 H 58.50103088513862 37.73712962762852 79.51474185404291 H 0.0 **** 0.06
10171 C 46.56041707179497 87.21383178757381 72.24914303274545 C 0.0 **** -0.24
10172 H 46.043467806423735 86.59338343929124 72.98151620190902 H 0.0 **** 0.06
10173 H 47.5525499847577 86.80371775242483 72.06153208163695 H 0.0 **** 0.06
10174 H 46.65371502819061 88.2293125342309 72.63534185026333 H 0.0 **** 0.06
10175 H 45.99123407597609 87.22996789371942 71.32002493562942 H 0.0 **** 0.06
10176 C 47.12504847340904 71.08256511436173 104.61305953507232 C 0.0 **** -0.24
10177 H 47.906781845812674 71.25278774152952 105.35416167937728 H 0.0 **** 0.06
10178 H 46.151784239547666 71.08759513646751 105.10385538029149 H 0.0 **** 0.06
10179 H 47.285533255764356 70.11814792588558 104.13179431168638 H 0.0 **** 0.06
10180 H 47.15885936900431 71.87356064514313 103.86248899341473 H 0.0 **** 0.06
10181 C 62.72422939816284 49.456415806546644 21.7406198664375 C 0.0 **** -0.24
10182 H 62.05836284912481 49.09711731166286 20.955698541794433 H 0.0 **** 0.06
10183 H 63.14999041418843 50.41524358077036 21.445416602358193 H 0.0 **** 0.06
10184 H 63.52647072210946 48.73343407591238 21.893925113308512 H 0.0 **** 0.06
10185 H 62.1618812768317 49.57648650912447 22.666718542365643 H 0.0 **** 0.06
10186 C 54.14082364791466 4.355327336324013 72.17559691520728 C 0.0 **** -0.24
10187 H 54.881129856066565 5.077840619128388 71.83281509789575 H 0.0 **** 0.06
10188 H 53.87705261731321 4.569094139720779 73.21113624283589 H 0.0 **** 0.06
10189 H 54.55578739164727 3.3487366809676082 72.10602254377801 H 0.0 **** 0.06
10190 H 53.24988382731419 4.424681293563999 71.55153490693476 H 0.0 **** 0.06
10191 C 1.244926517308718 121.70830587400792 49.89146150295653 C 0.0 **** -0.24
10192 H 0.753301720678742 121.10943002948983 50.65871632554342 H 0.0 **** 0.06
10193 H 1.8530356306880051 122.47825237050787 50.36668023897175 H 0.0 **** 0.06
10194 H 0.49194793699304995 122.17851137771393 49.2596892963025 H 0.0 **** 0.06
10195 H 1.881608158864509 121.06708087596803 49.28216100207436 H 0.0 **** 0.06
10196 C 56.697688278447515 106.58470557250732 27.239747748332178 C 0.0 **** -0.24
10197 H 56.072502415819514 107.00220970111812 28.029824415782826 H 0.0 **** 0.06
10198 H 56.461038762773285 107.07387787932134 26.29394032234822 H 0.0 **** 0.06
10199 H 56.50814007848297 105.51524108380823 27.15385095874109 H 0.0 **** 0.06
10200 H 57.74774650823929 106.75050041929114 27.481826136226374 H 0.0 **** 0.06
10201 C 105.59057276581282 68.0522156233261 65.56672737930307 C 0.0 **** -0.24
10202 H 106.66798877944962 67.97605468667149 65.7085769438714 H 0.0 **** 0.06
10203 H 105.21424100152896 68.92313914133496 66.10351576191178 H 0.0 **** 0.06
10204 H 105.10865646653903 67.15211744087293 65.95051398818785 H 0.0 **** 0.06
10205 H 105.3706428041373 68.1564684543597 64.50380577330645 H 0.0 **** 0.06
10206 C 42.86646290512931 12.089425772236694 50.69119228017894 C 0.0 **** -0.24
10207 H 43.829873605365265 12.491846978121629 50.37763822985448 H 0.0 **** 0.06
10208 H 43.0168413885732 11.126492720072036 51.18028371479829 H 0.0 **** 0.06
10209 H 42.22613111466637 11.958735213814776 49.819536822103714 H 0.0 **** 0.06
10210 H 42.39417391857205 12.781924673339432 51.38870828145093 H 0.0 **** 0.06
10211 C 78.37063834825031 70.51370916302804 80.95358184841382 C 0.0 **** -0.24
10212 H 78.09653321210178 69.48765024246751 80.70953152374858 H 0.0 **** 0.06
10213 H 77.51727158626696 71.0200575171134 81.40437407129514 H 0.0 **** 0.06
10214 H 78.66400838882501 71.03679199615544 80.04238834469072 H 0.0 **** 0.06
10215 H 79.20449265512426 70.51063968323945 81.65489536606356 H 0.0 **** 0.06
10216 C 88.10562230583554 5.311736383037399 38.95086057325748 C 0.0 **** -0.24
10217 H 87.41036944238635 4.52603024441688 39.2471922660231 H 0.0 **** 0.06
10218 H 88.38592332589602 5.897966403884624 39.82615529225787 H 0.0 **** 0.06
10219 H 87.62694277009385 5.961165326927315 38.21697014880957 H 0.0 **** 0.06
10220 H 88.99656509785311 4.863012839733507 38.51261383740296 H 0.0 **** 0.06
10221 C 102.36705494832745 17.614124837813108 118.61513106372232 C 0.0 **** -0.24
10222 H 102.5141586947498 18.651040513557177 118.31255295124032 H 0.0 **** 0.06
10223 H 103.16744435257354 16.99893333639733 118.20267087319742 H 0.0 **** 0.06
10224 H 101.40705581052305 17.260051696363973 118.2406675218337 H 0.0 **** 0.06
10225 H 102.38096728991019 17.54801411715914 119.7027223980264 H 0.0 **** 0.06
10226 C 52.1582043284493 33.24659834597924 31.627070354395926 C 0.0 **** -0.24
10227 H 53.20105640212006 33.308016889031364 31.313887474689437 H 0.0 **** 0.06
10228 H 51.55370921224906 32.87110972569724 30.80078642134214 H 0.0 **** 0.06
10229 H 51.80735385027363 34.23744878490484 31.913530498340975 H 0.0 **** 0.06
10230 H 52.073129677665065 32.57056780064656 32.477333892738244 H 0.0 **** 0.06
10231 C 31.237150954924886 99.54643109629106 121.00469452462252 C 0.0 **** -0.24
10232 H 31.26313533070273 100.33830133502155 120.25670627789796 H 0.0 **** 0.06
10233 H 31.187223671417144 98.57766589093885 120.50713910272628 H 0.0 **** 0.06
10234 H 30.359426265058687 99.67399034025937 121.63976242798645 H 0.0 **** 0.06
10235 H 32.13770789656698 99.59409244909713 121.61739816553387 H 0.0 **** 0.06
10236 C 37.04344971813538 95.06660742377329 102.58198910281271 C 0.0 **** -0.24
10237 H 36.763676671280166 95.50961982667991 101.6261025035881 H 0.0 **** 0.06
10238 H 37.59735395963166 95.79796343017324 103.17192443998303 H 0.0 **** 0.06
10239 H 37.670203481711496 94.19194652288394 102.40707147459526 H 0.0 **** 0.06
10240 H 36.145656945207264 94.76891784758683 103.12225208968889 H 0.0 **** 0.06
10241 C 73.55402795200843 5.8674540142055776 106.89333519162375 C 0.0 **** -0.24
10242 H 73.15740953126385 6.8648614105718195 107.0808675841339 H 0.0 **** 0.06
10243 H 72.98976343781953 5.396902133948032 106.0885044110976 H 0.0 **** 0.06
10244 H 73.46618905632613 5.266024248683351 107.7981493691027 H 0.0 **** 0.06
10245 H 74.60344729421274 5.941204479058882 106.60777775220487 H 0.0 **** 0.06
10246 C 27.75280350796868 0.8904636951293696 70.8319899447616 C 0.0 **** -0.24
10247 H 27.46034117519988 0.1155021693823386 70.12417606325513 H 0.0 **** 0.06
10248 H 27.09101287545647 0.859688014453809 71.6978387615114 H 0.0 **** 0.06
10249 H 27.680300806103745 1.8667631560150966 70.35191714434936 H 0.0 **** 0.06
10250 H 28.78063045589201 0.7199373661243982 71.15233923375251 H 0.0 **** 0.06
10251 C 108.90741226230267 106.24550644471174 56.72282307393923 C 0.0 **** -0.24
10252 H 108.7493796142254 106.98929583851941 55.940828675927186 H 0.0 **** 0.06
10253 H 108.13078616796895 105.4815926682781 56.659514886442416 H 0.0 **** 0.06
10254 H 108.8625755837079 106.7293776702283 57.69872392031869 H 0.0 **** 0.06
10255 H 109.88507987846299 105.78264905803326 56.591293000101196 H 0.0 **** 0.06
10256 C 81.27220598692264 60.672499371024166 62.63612661025593 C 0.0 **** -0.24
10257 H 80.62351361853831 60.06904033030839 62.00054532319717 H 0.0 **** 0.06
10258 H 82.31144829415626 60.394151599065914 62.46092935275021 H 0.0 **** 0.06
10259 H 81.0190323055204 60.4992720244471 63.68109043190225 H 0.0 **** 0.06
10260 H 81.13320492191752 61.726694706515126 62.3978599745339 H 0.0 **** 0.06
10261 C 32.37432018469738 68.28288839260074 74.08260968328011 C 0.0 **** -0.24
10262 H 31.775977313429735 68.6354191850285 73.24296991973142 H 0.0 **** 0.06
10263 H 31.974421564788372 67.3335321582822 74.44085407336019 H 0.0 **** 0.06
10264 H 32.3393744598614 69.01807470443973 74.88659414382971 H 0.0 **** 0.06
10265 H 33.40617478023961 68.14458934559917 73.76151073822433 H 0.0 **** 0.06
10266 C 28.661944351004394 122.30359691191785 116.7019926359798 C 0.0 **** -0.24
10267 H 29.023936016232142 122.03044228665242 117.69283554794914 H 0.0 **** 0.06
10268 H 28.082420242374127 121.47892930138228 116.28680077638171 H 0.0 **** 0.06
10269 H 29.51169903036623 122.51548229150741 116.05196973008727 H 0.0 **** 0.06
10270 H 28.032875922069707 123.19041492762433 116.77689143492948 H 0.0 **** 0.06
10271 C 11.313785912011248 99.69302642637678 16.407691165208405 C 0.0 **** -0.24
10272 H 12.18165880490153 100.3384823852904 16.546645952589756 H 0.0 **** 0.06
10273 H 10.629314567849555 99.8189309915507 17.24767107552347 H 0.0 **** 0.06
10274 H 11.638428369935657 98.65394104544686 16.355461298253715 H 0.0 **** 0.06
10275 H 10.805372834474934 99.96252582095826 15.482295945404587 H 0.0 **** 0.06
10276 C 99.59198035201922 54.843729834033134 27.685419185800185 C 0.0 **** -0.24
10277 H 100.522671781204 54.798785039705045 28.250114237762716 H 0.0 **** 0.06
10278 H 99.74961294873958 55.41065477257792 26.768927995342693 H 0.0 **** 0.06
10279 H 98.82553180227637 55.331753116440375 28.287865075919655 H 0.0 **** 0.06
10280 H 99.2687274030095 53.831760005524565 27.437639383906657 H 0.0 **** 0.06
10281 C 107.18422437047752 61.38221949118537 78.43040347799763 C 0.0 **** -0.24
10282 H 106.90550100810441 62.43295901401359 78.35258410697921 H 0.0 **** 0.06
10283 H 107.6829827577377 61.06979810094023 77.51248184616054 H 0.0 **** 0.06
10284 H 106.29033219916641 60.77832948280417 78.58185212557254 H 0.0 **** 0.06
10285 H 107.86089335412049 61.24804207801452 79.27487235731044 H 0.0 **** 0.06
10286 C 27.955708773780458 104.11251630712272 61.47346753642347 C 0.0 **** -0.24
10287 H 28.108753503686614 103.23021195452694 60.852300531064145 H 0.0 **** 0.06
10288 H 26.890310196259975 104.24008680105771 61.66643073491525 H 0.0 **** 0.06
10289 H 28.340150163220756 104.99124206434539 60.9569272025397 H 0.0 **** 0.06
10290 H 28.4836529011462 103.98610259602708 62.41857794905158 H 0.0 **** 0.06
10291 C 94.79940956446129 58.98758324833898 79.49439762680589 C 0.0 **** -0.24
10292 H 94.37342083346121 58.045211304182544 79.14920075273079 H 0.0 **** 0.06
10293 H 95.54331018292086 59.33361005086539 78.77593153959941 H 0.0 **** 0.06
10294 H 95.27188937054655 58.83819197059458 80.46466158310898 H 0.0 **** 0.06
10295 H 94.00859281040331 59.73191511723596 79.58610937370395 H 0.0 **** 0.06
10296 C 88.68434725723904 38.931799919723304 64.38032222369023 C 0.0 **** -0.24
10297 H 87.74949111823827 38.845921432757464 64.93431231512895 H 0.0 **** 0.06
10298 H 88.97502154560672 39.981188488185964 64.31966506341567 H 0.0 **** 0.06
10299 H 88.54737570864802 38.53327210595773 63.374611749551654 H 0.0 **** 0.06
10300 H 89.46363786315626 38.36737517548757 64.89223137441664 H 0.0 **** 0.06
10301 C 47.71885133841475 99.7684451735671 9.798916916052207 C 0.0 **** -0.24
10302 H 48.231584296682854 99.10359063448433 10.49357758850229 H 0.0 **** 0.06
10303 H 48.44957542551708 100.23492053224064 9.136746028339928 H 0.0 **** 0.06
10304 H 47.18934900051485 100.53965930917988 10.357987697027369 H 0.0 **** 0.06
10305 H 47.006745389188595 99.19428530145936 9.206446942770185 H 0.0 **** 0.06
10306 C 32.214535928819686 34.97608404511735 17.8702410064746 C 0.0 **** -0.24
10307 H 31.90225389846401 33.931823264304285 17.89035322022903 H 0.0 **** 0.06
10308 H 32.823768680649096 35.18973174831467 18.748032666857597 H 0.0 **** 0.06
10309 H 31.33470168867123 35.61869837460398 17.872998723886127 H 0.0 **** 0.06
10310 H 32.79821156442722 35.16273501938599 16.96883361108246 H 0.0 **** 0.06
10311 C 101.67464501624062 36.860618867181756 122.03925822468655 C 0.0 **** -0.24
10312 H 101.12973309633793 37.745642748936746 121.71163217899725 H 0.0 **** 0.06
10313 H 101.43619508662101 36.652450795108535 123.08233627527282 H 0.0 **** 0.06
10314 H 102.7458100731198 37.03671401753476 121.93954332266955 H 0.0 **** 0.06
10315 H 101.38757326803619 36.0083951231166 121.42255352903709 H 0.0 **** 0.06
10316 C 59.521798816631474 25.74047060573757 86.3415944465282 C 0.0 **** -0.24
10317 H 60.17551171237716 25.304463992844518 87.09706834883204 H 0.0 **** 0.06
10318 H 59.448166910291604 26.816512483970058 86.50274162148673 H 0.0 **** 0.06
10319 H 58.530602842655526 25.29278421914485 86.41677153173626 H 0.0 **** 0.06
10320 H 59.93349586687356 25.548608286333206 85.35098983794663 H 0.0 **** 0.06
10321 C 20.754035181228346 80.31171272758652 9.205445407976015 C 0.0 **** -0.24
10322 H 20.138342758688534 79.61860945181559 8.631735683957004 H 0.0 **** 0.06
10323 H 21.0594288521266 79.83842836168859 10.1390785212418 H 0.0 **** 0.06
10324 H 20.17982283708282 81.21170214601008 9.424503246365148 H 0.0 **** 0.06
10325 H 21.638155066512823 80.57603578477236 8.625728708734783 H 0.0 **** 0.06
10326 C 79.31602498621635 106.60795312544124 105.03049363881198 C 0.0 **** -0.24
10327 H 78.23183463281973 106.67139986390649 104.92865054247065 H 0.0 **** 0.06
10328 H 79.75056621302141 106.27691614544884 104.08721341850051 H 0.0 **** 0.06
10329 H 79.56584934093567 105.89492364579624 105.81714983326512 H 0.0 **** 0.06
10330 H 79.71376174992415 107.58880349458025 105.29022066473635 H 0.0 **** 0.06
10331 C 49.961650198380255 63.248759835774955 6.23027925597566 C 0.0 **** -0.24
10332 H 50.57792314113806 63.87158911778963 6.879311244287493 H 0.0 **** 0.06
10333 H 48.9202291569608 63.56377834862577 6.308412348710874 H 0.0 **** 0.06
10334 H 50.051292662029084 62.207020136897164 6.536368611169564 H 0.0 **** 0.06
10335 H 50.297460432677724 63.355582761518114 5.198546970574057 H 0.0 **** 0.06
10336 C 17.686896847372637 14.392915130765118 66.42055596690986 C 0.0 **** -0.24
10337 H 17.751667542167493 15.329146885407454 66.97450719141631 H 0.0 **** 0.06
10338 H 18.4846157955406 13.72318216600695 66.74281424952045 H 0.0 **** 0.06
10339 H 17.789635188443096 14.59441706227392 65.35449831926954 H 0.0 **** 0.06
10340 H 16.720503614393095 13.925405849125184 66.60922053282604 H 0.0 **** 0.06
10341 C 75.08847211137919 39.855461048765505 4.178126217691386 C 0.0 **** -0.24
10342 H 75.95327698134878 40.50443115352542 4.038349624138164 H 0.0 **** 0.06
10343 H 75.42709032958342 38.84267317598386 4.399283680831388 H 0.0 **** 0.06
10344 H 74.48939436886496 39.84771017385202 3.268207075707039 H 0.0 **** 0.06
10345 H 74.48648958290926 40.22694852054161 5.007305458221765 H 0.0 **** 0.06
10346 C 10.63785898238109 81.87030128342337 81.38061452225321 C 0.0 **** -0.24
10347 H 10.042720650613319 82.77220931104881 81.5221891699828 H 0.0 **** 0.06
10348 H 11.534617949262383 81.92719661998728 81.9972241056415 H 0.0 **** 0.06
10349 H 10.922008691390715 81.782706750821 80.33189231066967 H 0.0 **** 0.06
10350 H 10.050066586367222 80.99908414443047 81.67210723590227 H 0.0 **** 0.06
10351 C 3.0233281138142445 28.994426301195716 87.17042558355752 C 0.0 **** -0.24
10352 H 3.4923694589453618 29.937510028305866 87.45184245788104 H 0.0 **** 0.06
10353 H 3.311251332554093 28.735935195159897 86.15136390583933 H 0.0 **** 0.06
10354 H 1.9395841468984258 29.097508240770424 87.22710247659387 H 0.0 **** 0.06
10355 H 3.3497989420092296 28.209175123167512 87.85121368232083 H 0.0 **** 0.06
10356 C 23.03334114560311 105.81087182154175 37.07897274890536 C 0.0 **** -0.24
10357 H 22.79312216796525 105.55322031502612 36.04708432637614 H 0.0 **** 0.06
10358 H 24.11125225619586 105.94186940218816 37.17986607637937 H 0.0 **** 0.06
10359 H 22.700852054037284 105.00904519636862 37.73928348881424 H 0.0 **** 0.06
10360 H 22.527018628572684 106.7376578363704 37.348721369248665 H 0.0 **** 0.06
10361 C 74.34444841930676 58.31175097733194 67.5695328338222 C 0.0 **** -0.24
10362 H 74.30798344802596 57.23207171547543 67.71488457939503 H 0.0 **** 0.06
10363 H 75.3300358160914 58.68402017993595 67.84964401067361 H 0.0 **** 0.06
10364 H 73.58513767057735 58.78761938836515 68.19037145245429 H 0.0 **** 0.06
10365 H 74.15327304400122 58.54356514170985 66.52148019608856 H 0.0 **** 0.06
10366 C 7.311465443362238 74.18858692194198 27.53269838615776 C 0.0 **** -0.24
10367 H 7.278399795762482 73.13025831761001 27.273460326646052 H 0.0 **** 0.06
10368 H 6.394295968501922 74.46221101038378 28.056011144688533 H 0.0 **** 0.06
10369 H 7.401803905848965 74.78147203472764 26.62313515480576 H 0.0 **** 0.06
10370 H 8.16935997194554 74.37826812894338 28.1775387763114 H 0.0 **** 0.06
10371 C 63.54884265298807 81.18902263649318 44.86079723028393 C 0.0 **** -0.24
10372 H 64.42389566831292 80.66849519601854 44.47033905060924 H 0.0 **** 0.06
10373 H 63.036579464319175 81.69970886663137 44.04434195029326 H 0.0 **** 0.06
10374 H 63.86318373009652 81.91798797983614 45.60657149150538 H 0.0 **** 0.06
10375 H 62.87223388073107 80.46723545754065 45.31883215566636 H 0.0 **** 0.06
10376 C 117.31663490625341 100.27170054639194 40.19443261003795 C 0.0 **** -0.24
10377 H 118.37366390869 100.0479922062537 40.04636687740846 H 0.0 **** 0.06
10378 H 117.1935884492026 101.33999656090944 40.37501880637481 H 0.0 **** 0.06
10379 H 116.94450252956935 99.71130294690988 41.05265880881075 H 0.0 **** 0.06
10380 H 116.75711136793723 99.98590552732884 39.30357922092614 H 0.0 **** 0.06
10381 C 52.855751815857474 18.68884632016581 81.94607925469813 C 0.0 **** -0.24
10382 H 53.38995849789518 18.326382469872392 81.06680659732652 H 0.0 **** 0.06
10383 H 51.91344757837615 18.148971906289667 82.0455907478856 H 0.0 **** 0.06
10384 H 52.653868321066625 19.754152639810226 81.83516658761332 H 0.0 **** 0.06
10385 H 53.464674088526635 18.5243994124949 82.8339795325534 H 0.0 **** 0.06
10386 C 23.47736428561369 46.679287044717206 98.69709665150947 C 0.0 **** -0.24
10387 H 23.164274760703222 45.98940078667083 99.48083642707283 H 0.0 **** 0.06
10388 H 24.560794317849016 46.80230531700757 98.7328893569935 H 0.0 **** 0.06
10389 H 22.996296339567863 47.645544555695494 98.84995018240181 H 0.0 **** 0.06
10390 H 23.188453683658054 46.278587559544974 97.72510192169665 H 0.0 **** 0.06
10391 C 22.564955312346882 34.55157812334295 64.49157503276996 C 0.0 **** -0.24
10392 H 21.51967035448868 34.77041491428818 64.272025542081 H 0.0 **** 0.06
10393 H 22.68728522728827 34.406146178565024 65.56521235979102 H 0.0 **** 0.06
10394 H 23.186521333372383 35.38516490520598 64.16363460507534 H 0.0 **** 0.06
10395 H 22.864554228433377 33.64572774753299 63.964725240413316 H 0.0 **** 0.06
10396 C 1.0253950217625754 13.271701698636491 88.31674198434666 C 0.0 **** -0.24
10397 H 0.0552580816637569 12.779954161569606 88.24923068891536 H 0.0 **** 0.06
10398 H 1.5526710584284107 13.165446097083588 87.36812988389306 H 0.0 **** 0.06
10399 H 1.6113085993036549 12.811486900449097 89.1120624995147 H 0.0 **** 0.06
10400 H 0.8818133381498381 14.329300038994745 88.53696494709766 H 0.0 **** 0.06
10401 C 44.96044418401311 102.75925106518687 25.240336543665393 C 0.0 **** -0.24
10402 H 44.983427934079714 103.1421059213474 24.220002264990796 H 0.0 **** 0.06
10403 H 45.563196066805546 101.85264785683876 25.301139223951992 H 0.0 **** 0.06
10404 H 43.93143220499232 102.53078406447165 25.518991060260362 H 0.0 **** 0.06
10405 H 45.3627370087807 103.51044326379684 25.91876693662232 H 0.0 **** 0.06
10406 C 76.8805211460193 0.4629069672404853 113.84244282784488 C 0.0 **** -0.24
10407 H 76.99270406015148 1.5275346385543571 114.05236699208712 H 0.0 **** 0.06
10408 H 76.20779248168674 0.32971809906894123 112.99544756426235 H 0.0 **** 0.06
10409 H 76.46769586031468 -0.0378856780975525 114.71795246144947 H 0.0 **** 0.06
10410 H 77.85446584581439 0.03591110149739052 113.60459340892064 H 0.0 **** 0.06
10411 C 62.690363441891634 109.32079169658147 85.09129415937375 C 0.0 **** -0.24
10412 H 63.307381273082626 108.98291406623201 84.25904732165895 H 0.0 **** 0.06
10413 H 62.512350182105365 110.39320870706382 85.00092676486571 H 0.0 **** 0.06
10414 H 63.20397148063779 109.11633063210647 86.03083053292244 H 0.0 **** 0.06
10415 H 61.73707592112237 108.7915497901422 85.07529127133245 H 0.0 **** 0.06
10416 C 112.49420621813954 121.6953197877859 38.67158604341142 C 0.0 **** -0.24
10417 H 112.30472925754515 122.51267671378108 39.36775218372878 H 0.0 **** 0.06
10418 H 112.47485517885269 120.74837241638457 39.2103172364678 H 0.0 **** 0.06
10419 H 113.47200815610108 121.8310620483557 38.20964175292903 H 0.0 **** 0.06
10420 H 111.72411345992461 121.69087520760107 37.89954616455009 H 0.0 **** 0.06
10421 C 14.449070920087223 107.87684373431028 91.65032338513424 C 0.0 **** -0.24
10422 H 13.605703547058635 107.31444308205997 92.05136344039965 H 0.0 **** 0.06
10423 H 14.145836234064667 108.38167100066718 90.73273397655726 H 0.0 **** 0.06
10424 H 15.270964101608758 107.19382151241228 91.4350923799775 H 0.0 **** 0.06
10425 H 14.772577773257794 108.61675845726347 92.38240647219794 H 0.0 **** 0.06
10426 C 104.3553479243541 65.62762979347283 53.4169270101737 C 0.0 **** -0.24
10427 H 103.7824897110246 64.72882100282072 53.64469079818125 H 0.0 **** 0.06
10428 H 104.46028385958547 66.2299720954135 54.31852739419508 H 0.0 **** 0.06
10429 H 103.83566041906658 66.2041978323119 52.651735976415495 H 0.0 **** 0.06
10430 H 105.34277908204936 65.34571769881109 53.05111364163647 H 0.0 **** 0.06
10431 C 78.31863268390492 85.17887024384416 59.21686849812202 C 0.0 **** -0.24
10432 H 77.4728354298432 85.81367226542287 59.47977626175737 H 0.0 **** 0.06
10433 H 79.17130198161834 85.8024848747119 58.946581540028085 H 0.0 **** 0.06
10434 H 78.04870523429253 84.54549877784038 58.372327296764134 H 0.0 **** 0.06
10435 H 78.582522098639 84.55276676395653 60.06987729245834 H 0.0 **** 0.06
10436 C 83.61376661190963 35.56636093289731 52.62954400411265 C 0.0 **** -0.24
10437 H 83.46748195999493 34.72074571236362 53.302055612793644 H 0.0 **** 0.06
10438 H 84.16287203588834 36.35198103532335 53.148989325056526 H 0.0 **** 0.06
10439 H 82.64377537621061 35.94844331173718 52.31175449188578 H 0.0 **** 0.06
10440 H 84.18078325198721 35.242365024882986 51.756531438297536 H 0.0 **** 0.06
10441 C 38.08924813586259 63.66848586425714 71.10445756390098 C 0.0 **** -0.24
10442 H 38.12524818832662 62.78435943683241 70.46871112654631 H 0.0 **** 0.06
10443 H 37.18547568603867 63.64146140291266 71.71353406910112 H 0.0 **** 0.06
10444 H 38.08092359298695 64.56327933959392 70.48233342137397 H 0.0 **** 0.06
10445 H 38.964858890542985 63.68569991519691 71.75307886286203 H 0.0 **** 0.06
10446 C 27.241209531292583 116.5368225131198 64.36666221115544 C 0.0 **** -0.24
10447 H 27.170535847283162 117.106838133156 65.29282986875018 H 0.0 **** 0.06
10448 H 26.370574986038008 115.88821086847514 64.27191239005336 H 0.0 **** 0.06
10449 H 28.146823869407882 115.93143372716298 64.38034234937484 H 0.0 **** 0.06
10450 H 27.276064412470674 117.2239666845995 63.52041742833717 H 0.0 **** 0.06
10451 C 27.16905639876103 33.09615709189433 89.93564755751319 C 0.0 **** -0.24
10452 H 28.017054365216694 32.53555851106236 90.32821318830847 H 0.0 **** 0.06
10453 H 26.58690867112452 33.50095753372496 90.76344448268054 H 0.0 **** 0.06
10454 H 26.54234984478333 32.4348179279135 89.33835912911954 H 0.0 **** 0.06
10455 H 27.5325311880342 33.914266881347146 89.31301874856808 H 0.0 **** 0.06
10456 C 78.24141648023902 79.85089619549441 74.4965971477414 C 0.0 **** -0.24
10457 H 77.19344157472744 79.67337133205092 74.25850355751831 H 0.0 **** 0.06
10458 H 78.78698757075904 78.90743023502756 74.46229928998505 H 0.0 **** 0.06
10459 H 78.31920885829877 80.27985459115018 75.49644676737555 H 0.0 **** 0.06
10460 H 78.6672452681205 80.54372903641388 73.77050923842765 H 0.0 **** 0.06
10461 C 28.686673384370522 49.791701771498595 38.33634373195741 C 0.0 **** -0.24
10462 H 29.042673542347018 49.016310051728624 39.01450793397697 H 0.0 **** 0.06
10463 H 29.457042808175572 50.005442220623735 37.593558934607074 H 0.0 **** 0.06
10464 H 28.465889821422024 50.695982857520136 38.90207103081582 H 0.0 **** 0.06
10465 H 27.783353407663355 49.446526109961695 37.83291653997355 H 0.0 **** 0.06
10466 C 63.08908993746692 16.609193295116995 53.831348348071714 C 0.0 **** -0.24
10467 H 63.80856574202045 16.48215193069575 54.64017786116966 H 0.0 **** 0.06
10468 H 63.43897831186152 16.076671535938573 52.94680278769525 H 0.0 **** 0.06
10469 H 62.98446675899615 17.669202130247896 53.600131166951115 H 0.0 **** 0.06
10470 H 62.12294837331737 16.20716839591512 54.139019726871595 H 0.0 **** 0.06
10471 C 94.53388081294088 104.28761491898638 76.00469431510786 C 0.0 **** -0.24
10472 H 95.43757163582481 104.41726523414104 76.59983530416989 H 0.0 **** 0.06
10473 H 94.34174244250178 103.22435655725201 75.86300592809238 H 0.0 **** 0.06
10474 H 94.66819578354506 104.7654973477737 75.03360210730077 H 0.0 **** 0.06
10475 H 93.69027169695843 104.74448102185397 76.52072151770855 H 0.0 **** 0.06
10476 C 50.282777858910606 96.05784530563551 37.21312985664764 C 0.0 **** -0.24
10477 H 50.842399009472615 95.20915276763753 36.819666666330875 H 0.0 **** 0.06
10478 H 49.87528673224375 95.801770253559 38.19159586501917 H 0.0 **** 0.06
10479 H 49.46725996449351 96.30145217556168 36.5319291482117 H 0.0 **** 0.06
10480 H 50.94681707098624 96.91741570568897 37.307897042835805 H 0.0 **** 0.06
10481 C 18.900825205694787 58.53920588307818 46.858911052149935 C 0.0 **** -0.24
10482 H 19.714081528934685 59.17237813288472 46.50529241375724 H 0.0 **** 0.06
10483 H 18.413135620687427 59.01535114088216 47.71022753716338 H 0.0 **** 0.06
10484 H 19.30072578443651 57.571750217270335 47.16285874592597 H 0.0 **** 0.06
10485 H 18.17633863236628 58.397168820069 46.057352085954605 H 0.0 **** 0.06
10486 C 10.146063501218833 60.013416044990606 20.305123995405523 C 0.0 **** -0.24
10487 H 10.48376163076918 61.0025975064768 19.998895260423946 H 0.0 **** 0.06
10488 H 9.19338789798826 60.100568007695244 20.828247213024582 H 0.0 **** 0.06
10489 H 10.886077083715179 59.566741371844614 20.96914038122368 H 0.0 **** 0.06
10490 H 10.019984132944586 59.38282603696706 19.42442403325036 H 0.0 **** 0.06
10491 C 116.69307950682517 122.08495446571243 97.92740276330488 C 0.0 **** -0.24
10492 H 117.19703867255082 121.14767479617439 98.1611805526586 H 0.0 **** 0.06
10493 H 117.0323277507921 122.4475393937688 96.95648155556557 H 0.0 **** 0.06
10494 H 116.92787622261069 122.82543541125438 98.69377457188762 H 0.0 **** 0.06
10495 H 115.61545867275521 121.92128219162021 97.8993511151196 H 0.0 **** 0.06
10496 C 109.84605216106164 45.57490399872765 91.99667870198928 C 0.0 **** -0.24
10497 H 110.20309141140694 45.664134295114195 90.97022796803512 H 0.0 **** 0.06
10498 H 110.50653717583472 44.90965669898816 92.55362102698302 H 0.0 **** 0.06
10499 H 108.83601614372245 45.16617538747997 91.99417929477559 H 0.0 **** 0.06
10500 H 109.8395351413049 46.55865555932775 92.4660277451882 H 0.0 **** 0.06
10501 C 89.667902538416 10.884947832035017 107.57595925035096 C 0.0 **** -0.24
10502 H 90.31648822209226 10.818588688070935 108.44907732087916 H 0.0 **** 0.06
10503 H 88.71722957413655 11.336904459823828 107.8633342515142 H 0.0 **** 0.06
10504 H 89.49061309929408 9.886056979476354 107.17824879183672 H 0.0 **** 0.06
10505 H 90.14682725808316 11.499581153693395 106.81315837703386 H 0.0 **** 0.06
10506 C 121.38269435816055 55.78236341615911 88.16278053636651 C 0.0 **** -0.24
10507 H 120.82744230789518 55.55543881855021 89.07167623649383 H 0.0 **** 0.06
10508 H 121.47895233005637 54.878826693784426 87.56075734592991 H 0.0 **** 0.06
10509 H 122.37463629907259 56.150842831688216 88.42533960880777 H 0.0 **** 0.06
10510 H 120.8517405566714 56.545206902861146 87.59281822373984 H 0.0 **** 0.06
10511 C 22.62322139872885 36.55829480583293 58.56634340312991 C 0.0 **** -0.24
10512 H 22.52919658929133 35.934334164055315 57.67787925060488 H 0.0 **** 0.06
10513 H 21.684871623741486 37.08295992809292 58.74216791695725 H 0.0 **** 0.06
10514 H 23.423347783572993 37.282966484068595 58.41773714815859 H 0.0 **** 0.06
10515 H 22.85624955599053 35.93027298016386 59.42696275254743 H 0.0 **** 0.06
10516 C 94.1271144244565 43.44634267445913 12.54705147496594 C 0.0 **** -0.24
10517 H 93.78887874610615 44.42360121578599 12.199906546880811 H 0.0 **** 0.06
10518 H 93.38803569103297 43.02817668254394 13.230378596069784 H 0.0 **** 0.06
10519 H 95.08005899225901 43.555094930247584 13.063343675972646 H 0.0 **** 0.06
10520 H 94.2503614500896 42.7807103793719 11.691960823767829 H 0.0 **** 0.06
10521 C 88.01299447283014 11.078419368453524 15.778218512908325 C 0.0 **** -0.24
10522 H 87.71232962358158 10.137192827124892 15.317113946477946 H 0.0 **** 0.06
10523 H 89.09200367917515 11.075774016048882 15.938003863600954 H 0.0 **** 0.06
10524 H 87.5044657605157 11.19161819682094 16.735606468662695 H 0.0 **** 0.06
10525 H 87.74409337068357 11.906327500828581 15.123382377431142 H 0.0 **** 0.06
10526 C 67.34028266490631 78.02724739713898 95.89072004884758 C 0.0 **** -0.24
10527 H 68.3623686076537 78.17508427578497 96.23914464850293 H 0.0 **** 0.06
10528 H 67.08350283005547 78.81056074626116 95.17734464956243 H 0.0 **** 0.06
10529 H 66.65784533361864 78.06904083226405 96.73886900723431 H 0.0 **** 0.06
10530 H 67.25949320993377 77.05417337704233 95.40623357238684 H 0.0 **** 0.06
10531 C 72.18962208495824 79.22762104420838 4.543346031330572 C 0.0 **** -0.24
10532 H 73.24898366339971 79.31509626724292 4.3038294053869635 H 0.0 **** 0.06
10533 H 71.59650896528618 79.46504135803363 3.659700401064711 H 0.0 **** 0.06
10534 H 71.94027913237338 79.92262558905543 5.3452792671824625 H 0.0 **** 0.06
10535 H 71.97292258431034 78.20916231997774 4.86363685270436 H 0.0 **** 0.06
10536 C 75.62525113043955 118.23396215763555 48.88961747906791 C 0.0 **** -0.24
10537 H 74.58174541855666 118.13066451499245 48.59241629414595 H 0.0 **** 0.06
10538 H 76.25666605853672 118.23887941929456 48.00131678634966 H 0.0 **** 0.06
10539 H 75.90476561994166 117.39687701271941 49.52978641791117 H 0.0 **** 0.06
10540 H 75.75661635105118 119.16822910215565 49.435261657681735 H 0.0 **** 0.06
10541 C 107.04815034979077 27.694598884004726 8.272419096531877 C 0.0 **** -0.24
10542 H 108.06302734873313 27.94069258430695 7.962264908118129 H 0.0 **** 0.06
10543 H 106.33617968315468 28.18281692531685 7.606310929044582 H 0.0 **** 0.06
10544 H 106.88569220914897 28.040313487624694 9.293408767015023 H 0.0 **** 0.06
10545 H 106.90635508758973 26.614352732756537 8.228062183909174 H 0.0 **** 0.06
10546 C 91.15971734824973 12.25729335447437 34.2686711736668 C 0.0 **** -0.24
10547 H 90.43356616362058 12.046462398951917 35.05314286905582 H 0.0 **** 0.06
10548 H 91.05718304688952 13.294106638712321 33.947166738288956 H 0.0 **** 0.06
10549 H 90.98289849761116 11.59458600785024 33.42174132089286 H 0.0 **** 0.06
10550 H 92.16711678561273 12.095135535435986 34.65303478791344 H 0.0 **** 0.06
10551 C 110.40211513191991 44.6121318317104 120.47533638184842 C 0.0 **** -0.24
10552 H 109.69268257481829 43.926397111523215 120.01212318141344 H 0.0 **** 0.06
10553 H 111.2326584824564 44.791227922004666 119.79219548286576 H 0.0 **** 0.06
10554 H 110.77838310140098 44.17567430602952 121.40011653268496 H 0.0 **** 0.06
10555 H 109.90274853728297 45.55567875297258 120.6959907578902 H 0.0 **** 0.06
10556 C 34.70315754491918 14.017403903875675 48.779557689791005 C 0.0 **** -0.24
10557 H 35.34961808323942 13.195487457487047 48.47044070990765 H 0.0 **** 0.06
10558 H 34.5844936957173 13.99778848470089 49.86288462712645 H 0.0 **** 0.06
10559 H 33.72857320365074 13.910736659457541 48.30425301440633 H 0.0 **** 0.06
10560 H 35.15220192642528 14.964702891164222 48.480340501123834 H 0.0 **** 0.06
10561 C 75.67325387414692 17.018751370067093 69.91230303443984 C 0.0 **** -0.24
10562 H 75.37561037240866 17.61459709728146 70.7747920554952 H 0.0 **** 0.06
10563 H 75.77014862751429 17.665937383537894 69.03950471505306 H 0.0 **** 0.06
10564 H 74.9182537800396 16.257254846346797 69.71841131818468 H 0.0 **** 0.06
10565 H 76.62993777851972 16.537481738301324 70.11547680266824 H 0.0 **** 0.06
10566 C 25.41444494797011 122.62769681637758 21.841992213824994 C 0.0 **** -0.24
10567 H 24.813864318049326 123.09568762566573 21.062988649903872 H 0.0 **** 0.06
10568 H 25.969992157402345 121.79044629661657 21.41948659726451 H 0.0 **** 0.06
10569 H 24.761185932355062 122.26634459459181 22.63688618120679 H 0.0 **** 0.06
10570 H 26.11370530779223 123.3580418223032 22.251251726323034 H 0.0 **** 0.06
10571 C 3.1625948999039952 121.38542221006347 37.558017661339306 C 0.0 **** -0.24
10572 H 3.261618282053295 121.49774723997726 36.478836245511545 H 0.0 **** 0.06
10573 H 2.1353208005855375 121.5993786131481 37.85259141634092 H 0.0 **** 0.06
10574 H 3.836594119962257 122.08063370458297 38.05938599533529 H 0.0 **** 0.06
10575 H 3.416846397015007 120.36392928254539 37.84125698816937 H 0.0 **** 0.06
10576 C 67.69287377388932 1.8481724880975605 108.97991157868546 C 0.0 **** -0.24
10577 H 67.76241014723394 1.7627755870834392 107.89515527823269 H 0.0 **** 0.06
10578 H 67.4923440781603 2.8845267187207355 109.2514348215031 H 0.0 **** 0.06
10579 H 68.63376585612252 1.5296423472968002 109.42910618137478 H 0.0 **** 0.06
10580 H 66.8839000892795 1.2137538453675631 109.34286436284557 H 0.0 **** 0.06
10581 C 3.8140132626618026 3.2442295313624925 13.982654213925002 C 0.0 **** -0.24
10582 H 3.931947208502166 2.4588434542110065 14.728947320266286 H 0.0 **** 0.06
10583 H 2.7806793607969524 3.5922777834954474 13.981030630387579 H 0.0 **** 0.06
10584 H 4.066002263378493 2.849728451971856 12.998324204603165 H 0.0 **** 0.06
10585 H 4.4772431386613505 4.075132888555231 14.222011356821838 H 0.0 **** 0.06
10586 C 44.205253402615455 52.913133855676755 56.495155744241345 C 0.0 **** -0.24
10587 H 43.13647051852273 52.730576231331945 56.61197635303091 H 0.0 **** 0.06
10588 H 44.35954273421319 53.70828890765363 55.76536508504702 H 0.0 **** 0.06
10589 H 44.693085224349474 52.00178032953863 56.14917019324599 H 0.0 **** 0.06
10590 H 44.62900734593646 53.21084973862927 57.45343069857407 H 0.0 **** 0.06
10591 C 62.23437918822145 5.372934813030611 52.24525831079664 C 0.0 **** -0.24
10592 H 61.28347601242166 5.891243289062913 52.37540706219045 H 0.0 **** 0.06
10593 H 62.822580129550374 5.878967086350826 51.48012035870062 H 0.0 **** 0.06
10594 H 62.047427635929694 4.342954610040124 51.9402581985876 H 0.0 **** 0.06
10595 H 62.78267062639884 5.379061769473651 53.18805954546599 H 0.0 **** 0.06
10596 C 5.546311240971832 27.553929641217223 49.78574432888476 C 0.0 **** -0.24
10597 H 4.64853515861407 27.9414547128807 50.26713247093406 H 0.0 **** 0.06
10598 H 5.303350107318501 27.224610466102916 48.77468845143645 H 0.0 **** 0.06
10599 H 5.930345447533767 26.71034193379512 50.36062581334454 H 0.0 **** 0.06
10600 H 6.302388468642217 28.337219822689406 49.741014069151134 H 0.0 **** 0.06
10601 C 50.42262193424429 50.75011564115648 30.475949252262353 C 0.0 **** -0.24
10602 H 49.747910686914565 50.949426620218716 29.642681551063163 H 0.0 **** 0.06
10603 H 51.05812837912055 51.62118594738335 30.644321962306435 H 0.0 **** 0.06
10604 H 51.04424960547857 49.88632154068378 30.24029289427591 H 0.0 **** 0.06
10605 H 49.84027986181286 50.54604431510256 31.37412056052443 H 0.0 **** 0.06
10606 C 25.746391794844946 17.90720981921011 66.63501668493706 C 0.0 **** -0.24
10607 H 25.08606792044445 17.040666228356503 66.59501995137043 H 0.0 **** 0.06
10608 H 26.530748177315203 17.732094718589245 67.3715429300745 H 0.0 **** 0.06
10609 H 25.171335523771383 18.788894312086025 66.91887386509256 H 0.0 **** 0.06
10610 H 26.1965502134779 18.06701041043787 65.6551002008922 H 0.0 **** 0.06
10611 C 27.12063096128395 5.235209104709611 2.3514945178362154 C 0.0 **** -0.24
10612 H 28.087097556588503 5.661540286791848 2.621330026381912 H 0.0 **** 0.06
10613 H 26.386116049609768 5.4910414192890755 3.11517036781774 H 0.0 **** 0.06
10614 H 27.20896294248348 4.15147566010387 2.2785329969860584 H 0.0 **** 0.06
10615 H 26.801695035981822 5.6388244199641235 1.3909245628510973 H 0.0 **** 0.06
10616 C 10.362468098862024 55.399233515599946 90.78803901551666 C 0.0 **** -0.24
10617 H 10.754811447789223 54.44225144973228 90.44483627695121 H 0.0 **** 0.06
10618 H 10.850355864112146 55.67673303138329 91.72336504159148 H 0.0 **** 0.06
10619 H 9.288236604978408 55.3145115660663 90.95041199757134 H 0.0 **** 0.06
10620 H 10.557284053762942 56.163258971116136 90.03584559512004 H 0.0 **** 0.06
10621 C 25.203243390450176 33.4917017090896 25.357385719230194 C 0.0 **** -0.24
10622 H 24.387461250778713 32.821938426235306 25.083130653161334 H 0.0 **** 0.06
10623 H 25.5309682811708 33.26607467803572 26.372741830338384 H 0.0 **** 0.06
10624 H 24.858686097986485 34.52402933953388 25.306366069343085 H 0.0 **** 0.06
10625 H 26.035082841871606 33.35115103927032 24.666718070864874 H 0.0 **** 0.06
10626 C 88.6121572548542 114.56331213900529 81.15676705703504 C 0.0 **** -0.24
10627 H 88.0025418095803 114.19977961585687 80.32860443519752 H 0.0 **** 0.06
10628 H 88.59925392426226 115.6535826553623 81.16564853734971 H 0.0 **** 0.06
10629 H 89.63705022700378 114.21312092986247 81.03467433367797 H 0.0 **** 0.06
10630 H 88.20878081336389 114.18698706308214 82.09716805945243 H 0.0 **** 0.06
10631 C 118.87354291784288 118.90805390965588 47.537393514820735 C 0.0 **** -0.24
10632 H 119.8742920417443 118.54618496672762 47.30282123770576 H 0.0 **** 0.06
10633 H 118.63818993058393 118.67750452554768 48.57661009714042 H 0.0 **** 0.06
10634 H 118.14863605198897 118.42215518746596 46.884182518144684 H 0.0 **** 0.06
10635 H 118.83299274971127 119.98739643012635 47.38693222047232 H 0.0 **** 0.06
10636 C 25.683355931341907 113.25593125669768 52.236602500189804 C 0.0 **** -0.24
10637 H 26.56449706186403 113.49877326071305 51.6422497193671 H 0.0 **** 0.06
10638 H 25.993495636841033 112.95260454352659 53.23623161194752 H 0.0 **** 0.06
10639 H 25.139170724872415 112.43982759971848 51.7611875070707 H 0.0 **** 0.06
10640 H 25.039119530263633 114.1315950132781 52.30533740954837 H 0.0 **** 0.06
10641 C 105.23983277853267 44.50785922306014 53.07878409360939 C 0.0 **** -0.24
10642 H 104.80472802211378 44.593538689729286 52.083168706935275 H 0.0 **** 0.06
10643 H 105.3918049644652 43.45571849988809 53.31988259887235 H 0.0 **** 0.06
10644 H 104.56569145288657 44.95533538661181 53.808558469024824 H 0.0 **** 0.06
10645 H 106.19772757865161 45.02764045221926 53.102536267992484 H 0.0 **** 0.06
10646 C 94.65105546746867 120.85704750061231 3.929579173659249 C 0.0 **** -0.24
10647 H 93.90057973426809 120.08105498568281 4.079718807410018 H 0.0 **** 0.06
10648 H 94.16619730191115 121.76782976092093 3.5799174880190208 H 0.0 **** 0.06
10649 H 95.37556029483432 120.52210144825116 3.1874477752626262 H 0.0 **** 0.06
10650 H 95.16154078990724 121.0550276124761 4.871615102409805 H 0.0 **** 0.06
10651 C 3.619176999856734 99.82309342247459 26.101599578607818 C 0.0 **** -0.24
10652 H 3.9308426949076534 100.65291787049134 26.735589315122184 H 0.0 **** 0.06
10653 H 2.8232044158456233 100.15479891747086 25.434864817936443 H 0.0 **** 0.06
10654 H 3.256251261672986 99.00662201816093 26.725315413275155 H 0.0 **** 0.06
10655 H 4.469075803352666 99.47940616851858 25.510736391407193 H 0.0 **** 0.06
10656 C 14.5162222157475 25.190966679314556 18.51951937466265 C 0.0 **** -0.24
10657 H 13.53236793363735 25.084343483156886 18.977396458705016 H 0.0 **** 0.06
10658 H 14.836698521463457 26.230780264524583 18.586256092924344 H 0.0 **** 0.06
10659 H 14.463446216074306 24.893829544260484 17.47169524985381 H 0.0 **** 0.06
10660 H 15.23118087836724 24.555923437291938 19.041484175500727 H 0.0 **** 0.06
10661 C 4.150085630539017 18.6250527381099 39.2219227848245 C 0.0 **** -0.24
10662 H 4.17028399817373 19.705796597827174 39.358490742508906 H 0.0 **** 0.06
10663 H 3.6706736060741374 18.38793784717768 38.27153716064902 H 0.0 **** 0.06
10664 H 3.5885275078986627 18.16692429390943 40.03650670937239 H 0.0 **** 0.06
10665 H 5.169945427853339 18.23926400697826 39.22144855621082 H 0.0 **** 0.06
10666 C 79.78391674151163 4.852845602932348 23.172937520916832 C 0.0 **** -0.24
10667 H 78.79858006317377 5.316776497713647 23.210245046330527 H 0.0 **** 0.06
10668 H 79.96765202629305 4.471182517773286 22.16757446245282 H 0.0 **** 0.06
10669 H 79.82614400427238 4.0305421513374995 23.8872700963978 H 0.0 **** 0.06
10670 H 80.54365124626574 5.593186496945862 23.424474790924847 H 0.0 **** 0.06
10671 C 25.405657449096566 70.39131714393955 36.760116887792634 C 0.0 **** -0.24
10672 H 24.337426201255624 70.25478840310302 36.58859110805526 H 0.0 **** 0.06
10673 H 25.944964888466842 69.5095712192101 36.41540296798337 H 0.0 **** 0.06
10674 H 25.58707250397117 70.53585545783403 37.824943332839716 H 0.0 **** 0.06
10675 H 25.75156984267352 71.26758942256964 36.21167577921562 H 0.0 **** 0.06
10676 C 87.96255191933216 56.367396585857506 79.13616594068861 C 0.0 **** -0.24
10677 H 89.05138272042743 56.32917929515955 79.10284844452838 H 0.0 **** 0.06
10678 H 87.58594302477155 55.499009255027545 79.67771406845878 H 0.0 **** 0.06
10679 H 87.56767758735776 56.361349228471624 78.12122815593881 H 0.0 **** 0.06
10680 H 87.64608891981308 57.27756822156067 79.6443104266072 H 0.0 **** 0.06
10681 C 121.58894232850628 38.36852846798442 58.522051648954296 C 0.0 **** -0.24
10682 H 122.06577235756137 37.45291478433887 58.87362653800671 H 0.0 **** 0.06
10683 H 121.59145645177082 39.109383969689986 59.32199100377817 H 0.0 **** 0.06
10684 H 120.56097190115503 38.15383192225863 58.22877129941549 H 0.0 **** 0.06
10685 H 122.1382976817296 38.757710506289186 57.66444556124697 H 0.0 **** 0.06
10686 C 113.00709368615506 32.10370403579351 5.840990108631274 C 0.0 **** -0.24
10687 H 113.7269764062348 32.2870890909207 5.042765220951992 H 0.0 **** 0.06
10688 H 113.27133669812919 32.700586704677974 6.712787521572295 H 0.0 **** 0.06
10689 H 113.02072430670347 31.04626404554707 6.106210839325854 H 0.0 **** 0.06
10690 H 112.00911313561146 32.37902596122357 5.49895235680242 H 0.0 **** 0.06
10691 C 47.21308604536936 86.28001988779522 59.588031410895894 C 0.0 **** -0.24
10692 H 46.43773221625732 87.03008238581904 59.42739548835226 H 0.0 **** 0.06
10693 H 47.341700249831455 86.1144913806672 60.65751063368077 H 0.0 **** 0.06
10694 H 48.15117312372547 86.62995873997352 59.158050573774744 H 0.0 **** 0.06
10695 H 46.919747254313116 85.34619347654092 59.10789732069361 H 0.0 **** 0.06
10696 C 80.57081889519043 79.99445566124294 11.141518552293292 C 0.0 **** -0.24
10697 H 81.38219249283077 79.352087758084 11.485320166899385 H 0.0 **** 0.06
10698 H 79.64475721175785 79.42105335455304 11.107070729639418 H 0.0 **** 0.06
10699 H 80.80268054926074 80.36994742440882 10.14459013605483 H 0.0 **** 0.06
10700 H 80.45556729113872 80.83245769013783 11.828032736956914 H 0.0 **** 0.06
10701 C 10.074137107933609 113.27425611852672 53.60929277964087 C 0.0 **** -0.24
10702 H 9.477071337478122 112.37216890424942 53.481675518002135 H 0.0 **** 0.06
10703 H 9.416686276938805 114.14363267912172 53.64471871883484 H 0.0 **** 0.06
10704 H 10.76415612262167 113.3746041497506 52.771440664938126 H 0.0 **** 0.06
10705 H 10.63930025072392 113.20736104613957 54.53925828159504 H 0.0 **** 0.06
10706 C 41.78349775556825 47.99471978661775 56.722721088674746 C 0.0 **** -0.24
10707 H 41.308753110964744 47.17254753247911 56.18633271306936 H 0.0 **** 0.06
10708 H 41.67196011000698 48.915190860577816 56.149558379259474 H 0.0 **** 0.06
10709 H 42.84323086647828 47.77531083729494 56.85694715290305 H 0.0 **** 0.06
10710 H 41.31046214667191 48.11275911778789 57.697414957064325 H 0.0 **** 0.06
10711 C 59.40280744623982 82.84413629436793 69.41846460896016 C 0.0 **** -0.24
10712 H 58.564991410084104 82.8238108620503 68.72154116077832 H 0.0 **** 0.06
10713 H 60.32095563208958 83.07167329029176 68.87513224485113 H 0.0 **** 0.06
10714 H 59.497184597579775 81.87113389546263 69.89925909923915 H 0.0 **** 0.06
10715 H 59.227692033727294 83.6081930471897 70.17420719762731 H 0.0 **** 0.06
10716 C 121.02853120649146 93.87746257958992 2.989715857371806 C 0.0 **** -0.24
10717 H 120.94787415463418 94.85730926506051 3.461902392012405 H 0.0 **** 0.06
10718 H 120.3774925632829 93.84075412469764 2.1166790517492586 H 0.0 **** 0.06
10719 H 120.72942554297326 93.10718126285232 3.700643863983828 H 0.0 **** 0.06
10720 H 122.06075050502209 93.7073735956329 2.6817186961200434 H 0.0 **** 0.06
10721 C 46.20553990814497 99.36657829162422 69.48682001480691 C 0.0 **** -0.24
10722 H 46.69798737920925 99.59854267066927 70.43129614358858 H 0.0 **** 0.06
10723 H 46.02623996946443 98.29328705751334 69.42436537235605 H 0.0 **** 0.06
10724 H 46.84246705090666 99.67818318977163 68.659184036823 H 0.0 **** 0.06
10725 H 45.25470496565924 99.89824518506134 69.43323419003636 H 0.0 **** 0.06
10726 C 121.73506213660407 4.51917566385562 28.44866748858692 C 0.0 **** -0.24
10727 H 121.64907083216697 4.094024352668455 27.449172149098942 H 0.0 **** 0.06
10728 H 121.91318048391017 5.591749986210431 28.37384579165149 H 0.0 **** 0.06
10729 H 122.56671623435746 4.047750888188844 28.973299101045846 H 0.0 **** 0.06
10730 H 120.81135016287958 4.341286618609672 28.999908672309097 H 0.0 **** 0.06
10731 C 25.197279612171485 99.11169680894139 51.84154969571256 C 0.0 **** -0.24
10732 H 26.039632470546394 99.69090836733534 52.21865407701932 H 0.0 **** 0.06
10733 H 24.73780578916046 98.56084730602188 52.66228641563731 H 0.0 **** 0.06
10734 H 25.548768128012455 98.41126511837876 51.084283975341975 H 0.0 **** 0.06
10735 H 24.462646068625475 99.7856219567924 51.399397401906356 H 0.0 **** 0.06
10736 C 66.93007208209912 26.242211358511213 113.92106246734056 C 0.0 **** -0.24
10737 H 67.34288233722205 27.232501220117 113.73150310437427 H 0.0 **** 0.06
10738 H 65.98822070442642 26.131924266184285 113.3836949360537 H 0.0 **** 0.06
10739 H 66.75451718129392 26.12093931071206 114.99017692345154 H 0.0 **** 0.06
10740 H 67.63399518585729 25.48321094785672 113.58008921940035 H 0.0 **** 0.06
10741 C 61.414486707740735 38.81875268184602 26.13123281186629 C 0.0 **** -0.24
10742 H 60.32722300444911 38.77865729896473 26.060847000878226 H 0.0 **** 0.06
10743 H 61.70625601544248 39.65688442415951 26.764465793641953 H 0.0 **** 0.06
10744 H 61.83916642385603 38.94919977015892 25.135803842476236 H 0.0 **** 0.06
10745 H 61.78423341981522 37.88902473842444 26.565334792844865 H 0.0 **** 0.06
10746 C 104.62716460960638 109.57381284935121 86.72455511186513 C 0.0 **** -0.24
10747 H 104.7493269224837 109.09692977331184 87.6968796517921 H 0.0 **** 0.06
10748 H 105.09317900515481 110.55943374909447 86.74202508420615 H 0.0 **** 0.06
10749 H 103.56445313431362 109.67864908432233 86.50314850935516 H 0.0 **** 0.06
10750 H 105.09926128039424 108.96109518544768 85.95731729810498 H 0.0 **** 0.06
10751 C 85.68059441139553 1.7618344759811464 46.218601196880485 C 0.0 **** -0.24
10752 H 85.6609701526558 1.61067210507683 45.139441366477996 H 0.0 **** 0.06
10753 H 84.67891158130337 1.6196838580024178 46.62406122158164 H 0.0 **** 0.06
10754 H 86.02206505559863 2.7738600175732984 46.436578817534055 H 0.0 **** 0.06
10755 H 86.36255733438634 1.0429924731542428 46.6736439625038 H 0.0 **** 0.06
10756 C 82.05861700001716 60.18405346492341 13.447108427634817 C 0.0 **** -0.24
10757 H 81.73768769628677 61.225169971580385 13.480092141642785 H 0.0 **** 0.06
10758 H 83.11912946055273 60.13854253849331 13.199824795191319 H 0.0 **** 0.06
10759 H 81.48526833499434 59.651428406788284 12.689472042648333 H 0.0 **** 0.06
10760 H 81.89267503561399 59.7216083680201 14.42066581544293 H 0.0 **** 0.06
10761 C 113.36589324525922 105.08281037228261 113.01450998985743 C 0.0 **** -0.24
10762 H 113.69599482588836 105.90780800253896 113.64598128699706 H 0.0 **** 0.06
10763 H 113.86606858410605 105.14297785127945 112.04787425788524 H 0.0 **** 0.06
10764 H 112.2874644419512 105.14396847543205 112.87043327904388 H 0.0 **** 0.06
10765 H 113.61412900175706 104.13582164489517 113.49449283007914 H 0.0 **** 0.06
10766 C 69.23150790476743 56.93510933281751 23.892356179326555 C 0.0 **** -0.24
10767 H 69.72685874281328 57.19537832384571 22.956762919483367 H 0.0 **** 0.06
10768 H 69.83584030140051 56.204424887517966 24.431570258553734 H 0.0 **** 0.06
10769 H 68.2515323957206 56.50880808860128 23.677325036806735 H 0.0 **** 0.06
10770 H 69.11325249640672 57.830505114127625 24.501287287066248 H 0.0 **** 0.06
10771 C 107.9655380998706 51.91911228875725 94.09861643976473 C 0.0 **** -0.24
10772 H 107.12338129165323 51.803551411992544 93.41632051885952 H 0.0 **** 0.06
10773 H 107.76255903905985 51.376390767921265 95.02221809574357 H 0.0 **** 0.06
10774 H 108.10797309864853 52.9769595612876 94.3226066762565 H 0.0 **** 0.06
10775 H 108.86720162453753 51.52152462467791 93.63344224548277 H 0.0 **** 0.06
10776 C 10.446938206569193 17.538700439694992 70.87925790340248 C 0.0 **** -0.24
10777 H 10.329361863077626 16.72230696040083 71.59268953053598 H 0.0 **** 0.06
10778 H 10.241439333742857 17.173458754547255 69.87233341111113 H 0.0 **** 0.06
10779 H 11.468504679545266 17.91798423358472 70.92690204651277 H 0.0 **** 0.06
10780 H 9.750687087642856 18.3391002105667 71.12552320988726 H 0.0 **** 0.06
10781 C 0.6255626078669252 54.70041856465994 35.79622168976883 C 0.0 **** -0.24
10782 H -0.35564167024610427 54.43833278792681 36.1933367835901 H 0.0 **** 0.06
10783 H 0.6330813356056488 54.54837582077502 34.7165450507255 H 0.0 **** 0.06
10784 H 1.3851020215307717 54.06914859401408 36.25830531645835 H 0.0 **** 0.06
10785 H 0.8385553830399903 55.74645768381589 36.01720898477669 H 0.0 **** 0.06
10786 C 54.36977814515362 39.55029156256266 119.53766127109559 C 0.0 **** -0.24
10787 H 54.92825974369285 39.69860549545922 118.61400313544198 H 0.0 **** 0.06
10788 H 53.59214739113534 38.80401267203246 119.37573121287782 H 0.0 **** 0.06
10789 H 53.912482913081334 40.49251835394324 119.84140941190799 H 0.0 **** 0.06
10790 H 55.046563719043206 39.20667413641614 120.32018571175652 H 0.0 **** 0.06
10791 C 53.674748311039366 80.81455405813634 97.83011287345917 C 0.0 **** -0.24
10792 H 52.685699684703195 81.13603740450142 97.50559733641674 H 0.0 **** 0.06
10793 H 54.147583619630495 80.2368709537806 97.03552042289036 H 0.0 **** 0.06
10794 H 53.58145285168183 80.19676443099735 98.72251916439447 H 0.0 **** 0.06
10795 H 54.28519558302304 81.68929450595644 98.05521602240552 H 0.0 **** 0.06
10796 C 111.74585702795153 77.64946795201095 18.55019471943953 C 0.0 **** -0.24
10797 H 112.76801188132953 78.00989241115516 18.66601265877594 H 0.0 **** 0.06
10798 H 111.22157856247316 78.27304065971984 17.82540140412209 H 0.0 **** 0.06
10799 H 111.23316928509942 77.69604114112789 19.51043546456617 H 0.0 **** 0.06
10800 H 111.76344095054392 76.61782883429817 18.197455841112685 H 0.0 **** 0.06
10801 C 99.60643919977488 51.05822197894446 39.45028934209719 C 0.0 **** -0.24
10802 H 98.60581644792566 51.343691001299334 39.12592740483551 H 0.0 **** 0.06
10803 H 99.54506610110354 50.169143570874894 40.078260744706824 H 0.0 **** 0.06
10804 H 100.05170449363328 51.87511120790606 40.01910477038577 H 0.0 **** 0.06
10805 H 100.22448613184804 50.844486455194385 38.57762027151349 H 0.0 **** 0.06
10806 C 45.2236252132066 8.041998920267673 107.61512801138593 C 0.0 **** -0.24
10807 H 45.00948381151346 7.73528383326402 106.5911878469783 H 0.0 **** 0.06
10808 H 44.46769870842627 8.753174064282263 107.94733597738855 H 0.0 **** 0.06
10809 H 46.206919479514625 8.511350967147393 107.65472859004066 H 0.0 **** 0.06
10810 H 45.211697669827345 7.168492600098375 108.26679092711913 H 0.0 **** 0.06
10811 C 67.98388666613394 114.3406325773031 72.30557440636318 C 0.0 **** -0.24
10812 H 68.86831762066333 114.22426416663771 71.67910460217149 H 0.0 **** 0.06
10813 H 67.9911558681635 115.3282999444387 72.76579437268074 H 0.0 **** 0.06
10814 H 67.9866810149988 113.57606614652602 73.08307845663964 H 0.0 **** 0.06
10815 H 67.08796612171673 114.23130975741037 71.69381295662626 H 0.0 **** 0.06
10816 C 54.4998658186907 20.50311433209155 117.20041576197622 C 0.0 **** -0.24
10817 H 54.98874654443075 21.374012448604503 117.63737371458069 H 0.0 **** 0.06
10818 H 53.42116306549352 20.66512015243185 117.1786502634198 H 0.0 **** 0.06
10819 H 54.72299412451441 19.622265705351307 117.80198001859702 H 0.0 **** 0.06
10820 H 54.8651188385906 20.35285621368207 116.18449260662746 H 0.0 **** 0.06
10821 C 43.102165043865384 7.524848203500937 19.14765655713308 C 0.0 **** -0.24
10822 H 43.119539903326526 7.7495610917494275 18.08091507183694 H 0.0 **** 0.06
10823 H 43.538757625144214 8.356690105027013 19.700702772581096 H 0.0 **** 0.06
10824 H 43.6786677983787 6.618957114585271 19.337237897280243 H 0.0 **** 0.06
10825 H 42.07248618779499 7.3743678626915425 19.46945953565193 H 0.0 **** 0.06
10826 C 33.05860531867063 9.428375206983944 103.52966348082819 C 0.0 **** -0.24
10827 H 32.254444528351684 8.726478010486716 103.74672749458267 H 0.0 **** 0.06
10828 H 33.90555983795528 9.22630224562863 104.18547038669487 H 0.0 **** 0.06
10829 H 32.70580675521623 10.446678563127549 103.69420708842773 H 0.0 **** 0.06
10830 H 33.36863673267874 9.314950421318827 102.49077442079454 H 0.0 **** 0.06
10831 C 9.206503810378365 93.24219603337696 38.00010269803721 C 0.0 **** -0.24
10832 H 8.775411666872913 93.37994191821733 37.00881327063118 H 0.0 **** 0.06
10833 H 10.12808799626498 92.66592871589947 37.919693226242174 H 0.0 **** 0.06
10834 H 8.49813344666768 92.7091209369479 38.63364626859462 H 0.0 **** 0.06
10835 H 9.42386174544555 94.2165532344726 38.439310827253706 H 0.0 **** 0.06
10836 C 80.77577980842898 82.59123746948649 97.38561297985396 C 0.0 **** -0.24
10837 H 81.01698932607295 81.8111885903925 98.10755676610893 H 0.0 **** 0.06
10838 H 81.69618631485892 83.05683201762741 97.03213065801839 H 0.0 **** 0.06
10839 H 80.14738220616115 83.34405461815692 97.86173684490362 H 0.0 **** 0.06
10840 H 80.2422697529212 82.15277198260273 96.5424076939174 H 0.0 **** 0.06
10841 C 110.7939714629436 23.59545794204564 43.218590438958216 C 0.0 **** -0.24
10842 H 110.22483661102339 24.42850682854305 43.63106007099563 H 0.0 **** 0.06
10843 H 110.99192825237134 22.866308171090736 44.00385906576213 H 0.0 **** 0.06
10844 H 111.73847630602901 23.963799845686708 42.817243938018095 H 0.0 **** 0.06
10845 H 110.21891109406462 23.123870889013972 42.42094677122029 H 0.0 **** 0.06
10846 C 99.1578622094296 19.571991545064005 62.22192786993776 C 0.0 **** -0.24
10847 H 99.73216582021928 20.485027885864536 62.06485421274192 H 0.0 **** 0.06
10848 H 98.10356595144094 19.76656509665839 62.02024303562354 H 0.0 **** 0.06
10849 H 99.27578427865814 19.241292604311766 63.25380030447539 H 0.0 **** 0.06
10850 H 99.51987146959777 18.795206749655 61.54740664724477 H 0.0 **** 0.06
10851 C 58.869808010401606 84.80365823736543 46.62929521850671 C 0.0 **** -0.24
10852 H 58.443182877003146 85.80259757735922 46.5366974876317 H 0.0 **** 0.06
10853 H 58.106568955952675 84.11496533975779 46.992668869880305 H 0.0 **** 0.06
10854 H 59.7025023631432 84.8290756737643 47.332553510709204 H 0.0 **** 0.06
10855 H 59.22724408634175 84.46963886359023 45.65478678425629 H 0.0 **** 0.06
10856 C 16.36344798966377 109.10352481776786 87.93269956321825 C 0.0 **** -0.24
10857 H 15.759605738798854 108.72652169280724 88.7577736663495 H 0.0 **** 0.06
10858 H 17.111630267749092 109.79658403347267 88.31634690956443 H 0.0 **** 0.06
10859 H 15.721121366500611 109.62017633698537 87.21915427595627 H 0.0 **** 0.06
10860 H 16.860344430764002 108.26984044420692 87.4355592652474 H 0.0 **** 0.06
10861 C 57.21984003478528 23.97256272234074 20.612438756570043 C 0.0 **** -0.24
10862 H 58.112938517826194 23.389868454065947 20.834435436504634 H 0.0 **** 0.06
10863 H 56.694438604004205 24.198801534681706 21.540607114259785 H 0.0 **** 0.06
10864 H 56.565417438310305 23.39913594896268 19.95501576021377 H 0.0 **** 0.06
10865 H 57.50511253903457 24.902937258058103 20.12050075276943 H 0.0 **** 0.06
10866 C 93.11899198155498 107.16572831439879 27.28861562238908 C 0.0 **** -0.24
10867 H 93.9116667489132 107.13286590203131 26.540790820091317 H 0.0 **** 0.06
10868 H 92.35612463561966 107.87913539652186 26.976987843353477 H 0.0 **** 0.06
10869 H 93.53715492820677 107.47611612256722 28.2462999660286 H 0.0 **** 0.06
10870 H 92.67399646473064 106.17619424051043 27.388902155050197 H 0.0 **** 0.06
10871 C 46.18668567904125 42.137011297109325 19.566534283823017 C 0.0 **** -0.24
10872 H 47.1208273879895 41.60519551729458 19.751805614887047 H 0.0 **** 0.06
10873 H 45.570121438799184 42.10987062930815 20.46581295794755 H 0.0 **** 0.06
10874 H 45.65325877108317 41.65786172060533 18.744739526763794 H 0.0 **** 0.06
10875 H 46.40443935938391 43.17168070771579 19.305029835314997 H 0.0 **** 0.06
10876 C 25.281928843063838 5.592856181314943 121.38891290336333 C 0.0 **** -0.24
10877 H 24.258025790457566 5.754954679293974 121.72495712040833 H 0.0 **** 0.06
10878 H 25.6932641090321 4.714766812178823 121.88794952844987 H 0.0 **** 0.06
10879 H 25.88613499432421 6.466810164735648 121.63198178639126 H 0.0 **** 0.06
10880 H 25.289476224489505 5.435470485320678 120.3107028738442 H 0.0 **** 0.06
10881 C 50.414736630266944 119.84240749519807 33.61902548184582 C 0.0 **** -0.24
10882 H 50.260801629956056 120.60583309566155 34.381999614768276 H 0.0 **** 0.06
10883 H 51.41348356559732 119.41822916358001 33.726493987390164 H 0.0 **** 0.06
10884 H 50.31517044510985 120.29182333002859 32.63057611196765 H 0.0 **** 0.06
10885 H 49.67005908597051 119.05535848925807 33.736763888974586 H 0.0 **** 0.06
10886 C 52.12606192648066 46.3197782339125 9.099688589811421 C 0.0 **** -0.24
10887 H 51.56341879551563 46.74207229996328 8.266547779788567 H 0.0 **** 0.06
10888 H 53.16999808702446 46.20127965851009 8.809584291254424 H 0.0 **** 0.06
10889 H 51.70868903741804 45.347387949279224 9.36180908557779 H 0.0 **** 0.06
10890 H 52.060279908550605 46.98791820532243 9.958297828786613 H 0.0 **** 0.06
10891 C 56.561002255582046 100.1640583446044 75.28797278833136 C 0.0 **** -0.24
10892 H 57.23129638693596 101.00901958518756 75.4456224276187 H 0.0 **** 0.06
10893 H 57.094700428215056 99.23503648372878 75.4880346853295 H 0.0 **** 0.06
10894 H 56.208021227130835 100.1663606786498 74.25663277122857 H 0.0 **** 0.06
10895 H 55.70876991381636 100.24626301249987 75.96367734107935 H 0.0 **** 0.06
10896 C 112.19068601820643 45.10016624809276 101.1290123583492 C 0.0 **** -0.24
10897 H 112.16022913706604 45.07246224413316 102.21764449273695 H 0.0 **** 0.06
10898 H 112.48648628318612 44.12197150521155 100.74949504160892 H 0.0 **** 0.06
10899 H 112.9114374696089 45.850274452121596 100.80465743723511 H 0.0 **** 0.06
10900 H 111.20326913658866 45.35547189781673 100.7441213763565 H 0.0 **** 0.06
10901 C 73.86860320785954 103.06692345346423 82.38053441459647 C 0.0 **** -0.24
10902 H 74.71700698471656 103.18199512447231 83.05440503797826 H 0.0 **** 0.06
10903 H 74.2087067891051 103.1566087229466 81.34895590447718 H 0.0 **** 0.06
10904 H 73.13098577022288 103.84222334734122 82.58930643307531 H 0.0 **** 0.06
10905 H 73.41622452132998 102.08560280347521 82.53094902544922 H 0.0 **** 0.06
10906 C 13.6238589469882 14.167252940128122 66.46046940672181 C 0.0 **** -0.24
10907 H 14.46032220186095 13.684706788804988 65.9534746871937 H 0.0 **** 0.06
10908 H 13.279622548205925 15.014932420658056 65.86658051004022 H 0.0 **** 0.06
10909 H 13.946907206714407 14.517261954202638 67.44150238644141 H 0.0 **** 0.06
10910 H 12.810534577358382 13.452099614453687 66.57883855656806 H 0.0 **** 0.06
10911 C 93.95522509007847 96.08821607084158 64.58858712141603 C 0.0 **** -0.24
10912 H 94.59811052626881 96.79584251849377 64.0638440152915 H 0.0 **** 0.06
10913 H 94.3506216911764 95.9122694133338 65.58981462927741 H 0.0 **** 0.06
10914 H 93.92669672176484 95.14710191129777 64.03901781353213 H 0.0 **** 0.06
10915 H 92.94791830284103 96.49762800239768 64.66155977658062 H 0.0 **** 0.06
10916 C 69.61823520532081 14.708251614091722 18.212171744305554 C 0.0 **** -0.24
10917 H 69.80246891198948 15.611743550342567 18.793350190505944 H 0.0 **** 0.06
10918 H 69.92689546963078 14.871932004371189 17.17907844294777 H 0.0 **** 0.06
10919 H 68.55568803162404 14.46822679662526 18.240201744668497 H 0.0 **** 0.06
10920 H 70.1890542347476 13.881508040058321 18.635365371278983 H 0.0 **** 0.06
10921 C 93.22196234899019 51.20021359985614 103.63051208190313 C 0.0 **** -0.24
10922 H 92.14055023583995 51.08102597767635 103.69882235719857 H 0.0 **** 0.06
10923 H 93.54402319195225 51.014275030698684 102.60556923954155 H 0.0 **** 0.06
10924 H 93.70836088340451 50.49089903147828 104.29942641521379 H 0.0 **** 0.06
10925 H 93.49391254199196 52.21651916172166 103.91894982885765 H 0.0 **** 0.06
10926 C 63.642572143798475 58.17516272478511 82.71713351483893 C 0.0 **** -0.24
10927 H 63.843021079129215 58.96190964274513 81.98948135220388 H 0.0 **** 0.06
10928 H 62.98425970226626 57.428520507546864 82.27332472499168 H 0.0 **** 0.06
10929 H 63.16141460258754 58.60737089148452 83.59558200806859 H 0.0 **** 0.06
10930 H 64.58068950783226 57.70424315856272 83.0112605550762 H 0.0 **** 0.06
10931 C 36.73879075014679 110.40265835197437 6.571792296008809 C 0.0 **** -0.24
10932 H 36.685179191980694 111.47357926934464 6.38134492122694 H 0.0 **** 0.06
10933 H 37.747535297534796 110.13952974660396 6.89133877047027 H 0.0 **** 0.06
10934 H 36.493356333180486 109.85827624019231 5.660028521028337 H 0.0 **** 0.06
10935 H 36.02818014488207 110.1371444965439 7.35531904120927 H 0.0 **** 0.06
10936 C 59.56299296946542 94.11273701621448 68.19568330813578 C 0.0 **** -0.24
10937 H 58.684657359145696 93.4879751038952 68.35624547261571 H 0.0 **** 0.06
10938 H 59.35852248147551 94.82756555654822 67.39795455385664 H 0.0 **** 0.06
10939 H 60.40814286512653 93.48432901233417 67.91341179810863 H 0.0 **** 0.06
10940 H 59.79942265702554 94.64913415559943 69.11427527604593 H 0.0 **** 0.06
10941 C 41.94913738497243 94.876089892475 92.55872982745203 C 0.0 **** -0.24
10942 H 42.93508522039748 94.81427307499641 93.02066136177953 H 0.0 **** 0.06
10943 H 41.2155259157729 95.17510301328332 93.30854153056785 H 0.0 **** 0.06
10944 H 41.67727929863548 93.90250347808285 92.15102184592959 H 0.0 **** 0.06
10945 H 41.970390979747265 95.61316738467136 91.75593085452434 H 0.0 **** 0.06
10946 C 104.92766774724498 26.72282859170997 103.98154974877116 C 0.0 **** -0.24
10947 H 105.57962143025333 26.612212328950704 104.84788487492565 H 0.0 **** 0.06
10948 H 104.61485009411666 25.737311285085184 103.63533315272974 H 0.0 **** 0.06
10949 H 105.4674861958602 27.234035565332533 103.18412412163491 H 0.0 **** 0.06
10950 H 104.05093079496959 27.307111192611615 104.25967426983388 H 0.0 **** 0.06
10951 C 93.75481159151701 36.62325083117693 1.854550743843106 C 0.0 **** -0.24
10952 H 94.76338846751236 36.847639251830316 2.202380697482951 H 0.0 **** 0.06
10953 H 93.12760662594002 37.50854572655865 1.9654339358947226 H 0.0 **** 0.06
10954 H 93.34015446378538 35.80685443352856 2.446835794350818 H 0.0 **** 0.06
10955 H 93.78960673093292 36.330276407039634 0.8061260634393648 H 0.0 **** 0.06
10956 C 110.81107220403527 119.02680326077301 114.30173559118725 C 0.0 **** -0.24
10957 H 110.62385362230657 120.09805161195293 114.36914664268612 H 0.0 **** 0.06
10958 H 110.69644927418594 118.70179330312241 113.26755463434019 H 0.0 **** 0.06
10959 H 110.10047711747487 118.49247131353553 114.93205543311586 H 0.0 **** 0.06
10960 H 111.82617544412327 118.81401121137256 114.6392369532364 H 0.0 **** 0.06
10961 C 18.009997614796077 92.60401934702702 74.87772532611638 C 0.0 **** -0.24
10962 H 17.51301900372303 93.53090332469807 75.16453274502032 H 0.0 **** 0.06
10963 H 17.51525828628776 92.18222939869858 74.00300402808875 H 0.0 **** 0.06
10964 H 17.957596240363912 91.89339066596335 75.70290599353592 H 0.0 **** 0.06
10965 H 19.05403662729671 92.8099616752088 74.64214006051097 H 0.0 **** 0.06
10966 C 88.80513936573306 77.33879283211445 0.22670331348388117 C 0.0 **** -0.24
10967 H 88.82024365755109 76.42199100885685 -0.36252957581228884 H 0.0 **** 0.06
10968 H 89.65000995108352 77.3418213820126 0.9149856829824898 H 0.0 **** 0.06
10969 H 87.8750032700915 77.39285007077356 0.7911239957704765 H 0.0 **** 0.06
10970 H 88.87650258886657 78.19852032454747 -0.4398580730031654 H 0.0 **** 0.06
10971 C 84.38372633485511 45.96291049255555 42.09252434040559 C 0.0 **** -0.24
10972 H 84.10132875351536 45.41325957073062 41.19433136122461 H 0.0 **** 0.06
10973 H 83.50124885585927 46.123252765945836 42.711580849576535 H 0.0 **** 0.06
10974 H 84.81074397743106 46.92500703743079 41.8105025904992 H 0.0 **** 0.06
10975 H 85.12148063985953 45.38778419733322 42.6529603464524 H 0.0 **** 0.06
10976 C 19.634061590496476 32.50192847293964 83.23870133541786 C 0.0 **** -0.24
10977 H 20.226062338674136 33.331204180983676 82.85294496106374 H 0.0 **** 0.06
10978 H 20.24178230715528 31.59687192901211 83.24967120793826 H 0.0 **** 0.06
10979 H 18.76444502353679 32.348207271105906 82.59890917492314 H 0.0 **** 0.06
10980 H 19.303673101856262 32.72998981993251 84.25159350291119 H 0.0 **** 0.06
10981 C 20.21318630833082 33.785305495896324 56.15929971150396 C 0.0 **** -0.24
10982 H 19.342853867561416 33.13301075685041 56.08417199761726 H 0.0 **** 0.06
10983 H 20.804275938982812 33.707471023914024 55.24620824145782 H 0.0 **** 0.06
10984 H 20.820165555801452 33.48475322178285 57.0122871409888 H 0.0 **** 0.06
10985 H 19.883333303451707 34.81575594058231 56.291798806045165 H 0.0 **** 0.06
10986 C 69.05074172304907 36.44617182904244 97.76768841011494 C 0.0 **** -0.24
10987 H 68.98211618472632 37.31583073967792 98.42107346814788 H 0.0 **** 0.06
10988 H 69.76595640792056 36.6474549465558 96.96988065454056 H 0.0 **** 0.06
10989 H 68.07260353581401 36.23827241604589 97.33432409226677 H 0.0 **** 0.06
10990 H 69.38338183583079 35.58402630307796 98.34554545405248 H 0.0 **** 0.06
10991 C 60.81520762940926 98.61218910964976 26.344645041248782 C 0.0 **** -0.24
10992 H 61.02196724037461 97.5738197392968 26.085732629051904 H 0.0 **** 0.06
10993 H 59.802138520006906 98.69413411308412 26.738755607876584 H 0.0 **** 0.06
10994 H 60.91031035851623 99.23385465920029 25.454316703044242 H 0.0 **** 0.06
10995 H 61.52714964924749 98.9477751869116 27.098894793830112 H 0.0 **** 0.06
10996 C 90.51926391552706 56.557966494947834 87.78579788183447 C 0.0 **** -0.24
10997 H 89.98086924080155 57.50187819642491 87.70167301787177 H 0.0 **** 0.06
10998 H 90.91584149371243 56.45489075685515 88.79609822024838 H 0.0 **** 0.06
10999 H 91.34065698816283 56.545048399481516 87.0693241021842 H 0.0 **** 0.06
11000 H 89.83985952982408 55.73290878207854 87.57520704655127 H 0.0 **** 0.06
11001 C 13.875441182173603 63.12156154269044 32.68365545073445 C 0.0 **** -0.24
11002 H 14.125549633902722 63.50804853890412 31.69626716631265 H 0.0 **** 0.06
11003 H 14.056536242407702 62.046285322099806 32.708990094885195 H 0.0 **** 0.06
11004 H 12.824641587758634 63.31838683068912 32.89502980936571 H 0.0 **** 0.06
11005 H 14.495269013800055 63.61255774816951 33.434433953789636 H 0.0 **** 0.06
11006 C 7.01205451655386 84.8418008063893 8.406060936576765 C 0.0 **** -0.24
11007 H 7.177527666922458 85.39958858218756 9.328370332516627 H 0.0 **** 0.06
11008 H 5.993748250717232 84.45214828197976 8.395599965186136 H 0.0 **** 0.06
11009 H 7.719271968601262 84.01443946898871 8.351914885098267 H 0.0 **** 0.06
11010 H 7.158107514299843 85.50228872894331 7.551707776972137 H 0.0 **** 0.06
11011 C 119.81517645516655 10.738058791470166 67.29172667220803 C 0.0 **** -0.24
11012 H 119.33982377334293 11.702165365971837 67.47760452539382 H 0.0 **** 0.06
11013 H 120.56114807390942 10.846701842005245 66.50476407332681 H 0.0 **** 0.06
11014 H 119.06019754607271 10.016070361282772 66.98133231829948 H 0.0 **** 0.06
11015 H 120.29694385758947 10.389847767443712 68.20514900548844 H 0.0 **** 0.06
11016 C 48.530037462122976 52.59207069252427 89.19465962482056 C 0.0 **** -0.24
11017 H 49.040459086767186 53.33371037624851 88.57953319849037 H 0.0 **** 0.06
11018 H 49.20536365554071 51.75871289546168 89.39242850647742 H 0.0 **** 0.06
11019 H 47.647798680462984 52.2289090880688 88.66776827355508 H 0.0 **** 0.06
11020 H 48.22942223209611 53.04822227617829 90.13749116059068 H 0.0 **** 0.06
11021 C 20.97682753829156 8.824334846588727 117.79047011587207 C 0.0 **** -0.24
11022 H 22.03138429137249 8.718269312547818 118.04551776259598 H 0.0 **** 0.06
11023 H 20.433032447245523 9.214565704949507 118.65068514567835 H 0.0 **** 0.06
11024 H 20.571264272766882 7.850452574293598 117.514385083934 H 0.0 **** 0.06
11025 H 20.873166461130324 9.511486360551658 116.95105646596468 H 0.0 **** 0.06
11026 C 95.64992487446258 28.267605234928453 3.6349629372604113 C 0.0 **** -0.24
11027 H 94.5942356843261 28.017428723393834 3.7401873551700646 H 0.0 **** 0.06
11028 H 95.75137597627963 29.332649879637927 3.4273968388226876 H 0.0 **** 0.06
11029 H 96.07952152845886 27.69413835604547 2.814131936665092 H 0.0 **** 0.06
11030 H 96.17293051920186 28.026092626275386 4.560648046214681 H 0.0 **** 0.06
11031 C 57.02656785492661 30.957829594965176 89.43139509162012 C 0.0 **** -0.24
11032 H 56.34375306174422 30.11967456024871 89.57147449613069 H 0.0 **** 0.06
11033 H 58.05522465914089 30.599408160276653 89.48049126256669 H 0.0 **** 0.06
11034 H 56.859898124614574 31.69700641933906 90.21466639113476 H 0.0 **** 0.06
11035 H 56.846571471477546 31.413242118559083 88.45777666338003 H 0.0 **** 0.06
11036 C 108.58141994726964 16.419197857402736 108.17689235392561 C 0.0 **** -0.24
11037 H 107.8595116283011 16.198318111208295 107.39038191528002 H 0.0 **** 0.06
11038 H 108.42922344836728 17.437934136538743 108.53365524098484 H 0.0 **** 0.06
11039 H 109.59217994744091 16.32050399574041 107.78046973034677 H 0.0 **** 0.06
11040 H 108.44482973616624 15.720606303597009 109.00142858583484 H 0.0 **** 0.06
11041 C 103.00264613930409 85.91653486680335 110.46817556209146 C 0.0 **** -0.24
11042 H 103.57930262738739 85.11485766198439 110.93088621782098 H 0.0 **** 0.06
11043 H 103.41656456028414 86.14051077085142 109.48512192552255 H 0.0 **** 0.06
11044 H 103.05177600174693 86.80745650419198 111.09577187277335 H 0.0 **** 0.06
11045 H 101.96362739982658 85.60283772486088 110.36397224427549 H 0.0 **** 0.06
11046 C 121.35526629110294 31.506017980114507 96.39441180501967 C 0.0 **** -0.24
11047 H 122.22314976802596 32.083293509191776 96.0747989266736 H 0.0 **** 0.06
11048 H 120.46776726485339 31.865188197799966 95.87465966239324 H 0.0 **** 0.06
11049 H 121.21898258230866 31.621546158050478 97.47001682608294 H 0.0 **** 0.06
11050 H 121.51386611818472 30.45311341615104 96.1605887486852 H 0.0 **** 0.06
11051 C 32.83006539717286 41.13733214028974 102.18130445898268 C 0.0 **** -0.24
11052 H 32.7118338877666 41.065006078405645 101.10010587152786 H 0.0 **** 0.06
11053 H 32.16894484030132 40.41820983551008 102.66727768493533 H 0.0 **** 0.06
11054 H 32.572864347494004 42.145369215273746 102.50715569051204 H 0.0 **** 0.06
11055 H 33.863101165020055 40.92092311448155 102.4494149609456 H 0.0 **** 0.06
11056 C 27.66286445248835 46.26212305024103 115.49536460537877 C 0.0 **** -0.24
11057 H 28.398937039287006 45.64083735876474 116.00495790521151 H 0.0 **** 0.06
11058 H 27.269549172417555 45.72673776254638 114.63070694975166 H 0.0 **** 0.06
11059 H 28.133721957179006 47.18804228919234 115.166370903298 H 0.0 **** 0.06
11060 H 26.84676379505086 46.493845359694006 116.18111946069625 H 0.0 **** 0.06
11061 C 21.366588135962104 74.47222823295377 7.353082674389778 C 0.0 **** -0.24
11062 H 20.425507881276104 74.7133536635499 7.846152185367689 H 0.0 **** 0.06
11063 H 21.77161773100721 75.37025495558393 6.8835570409165925 H 0.0 **** 0.06
11064 H 21.19419209990926 73.71113034792279 6.592085469706269 H 0.0 **** 0.06
11065 H 22.07649330199476 74.09548063843081 8.089064335111864 H 0.0 **** 0.06
11066 C 19.05731644555101 40.915469196989136 93.40802302624809 C 0.0 **** -0.24
11067 H 19.753406835850527 41.083091617614514 92.58559912530785 H 0.0 **** 0.06
11068 H 18.348566568352226 40.1353261277967 93.13013539409161 H 0.0 **** 0.06
11069 H 18.51751188462373 41.838213041973745 93.61978217846703 H 0.0 **** 0.06
11070 H 19.610406589883326 40.60602773052028 94.29457611230873 H 0.0 **** 0.06
11071 C 15.875947846055624 6.098837453184245 111.81915850111153 C 0.0 **** -0.24
11072 H 15.054621330708642 6.621299423380549 112.30926905446478 H 0.0 **** 0.06
11073 H 16.809106817386578 6.32463548744235 112.33405717429474 H 0.0 **** 0.06
11074 H 15.944459755360697 6.425717271465658 110.78088545770487 H 0.0 **** 0.06
11075 H 15.693627009630518 5.024783728305408 111.85071515700679 H 0.0 **** 0.06
11076 C 71.18475728789733 66.5737605714001 71.5076776579964 C 0.0 **** -0.24
11077 H 70.62235347760097 65.79119388790676 72.01636167962883 H 0.0 **** 0.06
11078 H 70.72575093197389 66.77975302584741 70.54013775333937 H 0.0 **** 0.06
11079 H 72.21271488560089 66.24339947985374 71.3586513100199 H 0.0 **** 0.06
11080 H 71.1772645657091 67.47912150680295 72.11393875645118 H 0.0 **** 0.06
11081 C 60.493341845402256 11.343428311735693 7.781335996393462 C 0.0 **** -0.24
11082 H 60.234829278851294 12.346001744114005 8.120741127904388 H 0.0 **** 0.06
11083 H 59.99154505689543 11.138256879175458 6.834993631842888 H 0.0 **** 0.06
11084 H 60.175919998772514 10.614054185055267 8.526532535189048 H 0.0 **** 0.06
11085 H 61.57270850605997 11.27394124041848 7.642633641043542 H 0.0 **** 0.06
11086 C 22.772032920796903 86.00032684269661 76.61783577229696 C 0.0 **** -0.24
11087 H 23.59065662576728 85.43812622821557 76.16696006234432 H 0.0 **** 0.06
11088 H 22.050841391902907 86.27102869797307 75.84697755808332 H 0.0 **** 0.06
11089 H 23.165280899462232 86.90445122426243 77.08218072674083 H 0.0 **** 0.06
11090 H 22.282802501717697 85.38610805565551 77.37462443282774 H 0.0 **** 0.06
11091 C 76.58388357782874 47.783330704871815 51.47694164586585 C 0.0 **** -0.24
11092 H 76.7913466517789 48.77734259446609 51.082446412864726 H 0.0 **** 0.06
11093 H 76.18694357309815 47.86970576867574 52.4884455328783 H 0.0 **** 0.06
11094 H 77.50466054927873 47.200535673633254 51.49540333252001 H 0.0 **** 0.06
11095 H 75.85183514113768 47.285786347898664 50.84080971876557 H 0.0 **** 0.06
11096 C 37.694264379134836 28.990712131406724 16.470716905712603 C 0.0 **** -0.24
11097 H 36.730737060328465 28.582412024480334 16.77751866579253 H 0.0 **** 0.06
11098 H 38.430136666022236 28.811820653195923 17.255597167887085 H 0.0 **** 0.06
11099 H 37.59684559822051 30.062154682182268 16.301107155513375 H 0.0 **** 0.06
11100 H 38.01898195461894 28.504531728224606 15.550681987582795 H 0.0 **** 0.06
11101 C 10.994853120826804 114.10287532374174 17.610155765778178 C 0.0 **** -0.24
11102 H 10.144407382884406 113.51227637753266 17.950753855888305 H 0.0 **** 0.06
11103 H 10.81239509561037 114.44572869431079 16.5914895850816 H 0.0 **** 0.06
11104 H 11.894645209499757 113.48874852618992 17.63214567215122 H 0.0 **** 0.06
11105 H 11.125343269047551 114.96373522372073 18.265913102153505 H 0.0 **** 0.06
11106 C 20.216873615028817 51.902515130322065 107.72523102996354 C 0.0 **** -0.24
11107 H 19.48939849477 52.558868853315346 107.24715060212247 H 0.0 **** 0.06
11108 H 21.042015654829356 52.497061972535796 108.116133502048 H 0.0 **** 0.06
11109 H 20.596530566479657 51.18926354947543 106.99383244195428 H 0.0 **** 0.06
11110 H 19.736088224462264 51.363333275458906 108.54217382450656 H 0.0 **** 0.06
11111 C 71.68571682548713 61.28187114965485 66.31353850600789 C 0.0 **** -0.24
11112 H 70.6579640249665 60.97270394056787 66.50835134473914 H 0.0 **** 0.06
11113 H 71.96874414569513 60.984525917674006 65.30334172863519 H 0.0 **** 0.06
11114 H 72.35072472076183 60.80584184537571 67.03403536346931 H 0.0 **** 0.06
11115 H 71.76282242178047 62.36532578439255 66.40958517708088 H 0.0 **** 0.06
11116 C 66.4269263995921 2.771574476772443 52.14829104552038 C 0.0 **** -0.24
11117 H 66.10337260175532 2.003669162980856 51.44569123549323 H 0.0 **** 0.06
11118 H 66.78783292155325 2.2987508805637162 53.06158204406623 H 0.0 **** 0.06
11119 H 65.58735070840055 3.424885954445827 52.38368188199942 H 0.0 **** 0.06
11120 H 67.22934232641427 3.3571774680314945 51.700574730426325 H 0.0 **** 0.06
11121 C 5.694927256446462 20.721228342473694 61.22305601423475 C 0.0 **** -0.24
11122 H 5.837657847454757 21.75932934538706 61.52416803358667 H 0.0 **** 0.06
11123 H 5.008301648576136 20.678586668026995 60.3782234682134 H 0.0 **** 0.06
11124 H 5.280725567959859 20.155204067883545 62.0575879950272 H 0.0 **** 0.06
11125 H 6.655209040712325 20.293135110809544 60.93409537071876 H 0.0 **** 0.06
11126 C 24.712984396289556 80.12103506188774 18.279350035222706 C 0.0 **** -0.24
11127 H 23.669779457178407 80.01237370846883 18.574904188163202 H 0.0 **** 0.06
11128 H 24.96680449336091 81.17980909700327 18.22537741957609 H 0.0 **** 0.06
11129 H 24.8643303709201 79.65983775378035 17.302799661476797 H 0.0 **** 0.06
11130 H 25.352063796870453 79.63116267564467 19.014279771500412 H 0.0 **** 0.06
11131 C 1.5430577002715893 39.44327867627982 22.090926635586143 C 0.0 **** -0.24
11132 H 1.005724643540077 38.557436277807824 22.430984887834185 H 0.0 **** 0.06
11133 H 1.0244527143557036 39.87396568893524 21.233733100137428 H 0.0 **** 0.06
11134 H 2.5556398420750384 39.16386160850567 21.800798029818644 H 0.0 **** 0.06
11135 H 1.5836292665846372 40.17506219634606 22.896618795270548 H 0.0 **** 0.06
11136 C 105.9731943530436 115.03974090829696 80.8414089549027 C 0.0 **** -0.24
11137 H 106.32732115885992 114.04723935931415 80.56308899508684 H 0.0 **** 0.06
11138 H 105.84565436945229 115.09052898843169 81.92298247664851 H 0.0 **** 0.06
11139 H 105.01748173225519 115.23328553109205 80.35362208299358 H 0.0 **** 0.06
11140 H 106.70077564013457 115.78719851976102 80.52488924431196 H 0.0 **** 0.06
11141 C 110.6607905689205 51.733049101389305 28.881216335875315 C 0.0 **** -0.24
11142 H 111.56835427956645 51.172720835892214 29.10500966466533 H 0.0 **** 0.06
11143 H 110.1243837748691 51.939544830936285 29.80765922436816 H 0.0 **** 0.06
11144 H 110.02729277505466 51.14667314509725 28.215877401854144 H 0.0 **** 0.06
11145 H 110.92447771344894 52.67285818307355 28.39615128192891 H 0.0 **** 0.06
11146 C 59.71938687402124 47.60742259664676 20.653410307400005 C 0.0 **** -0.24
11147 H 58.860292859285124 47.121435117236175 20.191670407240444 H 0.0 **** 0.06
11148 H 59.61175767486452 48.68950673772781 20.57078425918508 H 0.0 **** 0.06
11149 H 60.63147282730523 47.29298138545845 20.1451218805115 H 0.0 **** 0.06
11150 H 59.77386603330484 47.32656563877101 21.70548376167779 H 0.0 **** 0.06
11151 C 100.94368039753604 117.95298141655113 112.07813118485824 C 0.0 **** -0.24
11152 H 100.87924302484248 117.73502515928136 113.14444542388962 H 0.0 **** 0.06
11153 H 100.22574893760822 117.33569786279334 111.53758091595277 H 0.0 **** 0.06
11154 H 101.9509516551785 117.7361314590853 111.72297513568641 H 0.0 **** 0.06
11155 H 100.7165968717473 119.00604452540479 111.90903847124434 H 0.0 **** 0.06
11156 C 13.213917343479011 4.342024874201854 53.061546124408096 C 0.0 **** -0.24
11157 H 14.18365728783425 4.477869472659037 53.542509667604065 H 0.0 **** 0.06
11158 H 13.358231774721276 3.8976885971930386 52.07621835949692 H 0.0 **** 0.06
11159 H 12.722779322899896 5.308406602920442 52.95584453031614 H 0.0 **** 0.06
11160 H 12.59594242473193 3.683216732421357 53.67075126455455 H 0.0 **** 0.06
11161 C 93.48656127283516 1.2527733778853332 113.00698009962099 C 0.0 **** -0.24
11162 H 92.66693136813473 1.96920555119776 113.05098951230934 H 0.0 **** 0.06
11163 H 93.69920597322599 1.0078649524805883 111.96613945454862 H 0.0 **** 0.06
11164 H 93.20591531579473 0.34600379521251057 113.5432299715705 H 0.0 **** 0.06
11165 H 94.37358618351905 1.6875273442899754 113.46693649501023 H 0.0 **** 0.06
11166 C 89.8684236535019 80.67141428497118 3.192601708560673 C 0.0 **** -0.24
11167 H 90.16834332062038 80.30197370630998 4.172659827860485 H 0.0 **** 0.06
11168 H 90.74627029600862 81.03454888613956 2.6575019960270225 H 0.0 **** 0.06
11169 H 89.15449808781514 81.4858959375228 3.314331086721282 H 0.0 **** 0.06
11170 H 89.40549334375689 79.86343081730254 2.6255475610246037 H 0.0 **** 0.06
11171 C 108.98613713139423 19.869412436586188 106.5862593166018 C 0.0 **** -0.24
11172 H 108.48254356081566 19.71887041683297 107.54095755358071 H 0.0 **** 0.06
11173 H 108.45914429511373 19.316543352540407 105.80717101516959 H 0.0 **** 0.06
11174 H 110.01254466915222 19.50886772407597 106.6570493502449 H 0.0 **** 0.06
11175 H 108.989638206163 20.931025028522157 106.34008346424349 H 0.0 **** 0.06
11176 C 20.688075140598357 83.30785187039498 15.048778900492565 C 0.0 **** -0.24
11177 H 20.538712930148733 84.29730554739268 14.616932325287593 H 0.0 **** 0.06
11178 H 20.077356786769542 82.58146014494235 14.512575315567489 H 0.0 **** 0.06
11179 H 20.39668797787232 83.32311814983785 16.099055815328825 H 0.0 **** 0.06
11180 H 21.739389082770913 83.03185292999325 14.96729449985716 H 0.0 **** 0.06
11181 C 31.882907917452258 102.0533885442619 44.23412148231775 C 0.0 **** -0.24
11182 H 32.902408207377505 101.82144882115799 43.92666379286027 H 0.0 **** 0.06
11183 H 31.204319859780554 101.29430949404698 43.84234030869763 H 0.0 **** 0.06
11184 H 31.59995721580887 103.03040260912132 43.84463149859543 H 0.0 **** 0.06
11185 H 31.825348351328557 102.06498513723125 45.32304967382942 H 0.0 **** 0.06
11186 C 13.088713662320039 63.04816285230089 60.00630023782358 C 0.0 **** -0.24
11187 H 12.163016016501786 63.55882794703169 59.73959028465214 H 0.0 **** 0.06
11188 H 13.30019024463552 63.209050428424774 61.063723524974876 H 0.0 **** 0.06
11189 H 13.90768318776076 63.443368199817684 59.40666560957118 H 0.0 **** 0.06
11190 H 12.980537506057146 61.97994980996711 59.81558840559006 H 0.0 **** 0.06
11191 C 112.2672213759232 89.95578591202164 64.98358906632225 C 0.0 **** -0.24
11192 H 112.42950325915601 89.53399200686678 65.97566902349567 H 0.0 **** 0.06
11193 H 113.22529557161596 90.24336375583238 64.55054986491012 H 0.0 **** 0.06
11194 H 111.6253083346492 90.83281341513475 65.0628323772165 H 0.0 **** 0.06
11195 H 111.78828067621788 89.21115504150791 64.34650595338567 H 0.0 **** 0.06
11196 C 15.104888251954918 1.33997290024557 94.57893231185142 C 0.0 **** -0.24
11197 H 15.826661274249432 1.5891095359866085 93.80098708439976 H 0.0 **** 0.06
11198 H 14.231989214429973 0.8674383505118755 94.12791398660906 H 0.0 **** 0.06
11199 H 14.799612453353035 2.249634469406246 95.09606541424952 H 0.0 **** 0.06
11200 H 15.562741703457078 0.6535307904665899 95.29212699258127 H 0.0 **** 0.06
11201 C 52.669288442346065 57.933109576142215 5.9435480778626015 C 0.0 **** -0.24
11202 H 53.30877430820518 57.682512212156354 5.098111605568874 H 0.0 **** 0.06
11203 H 52.692144998443105 59.010049446682494 6.111349279206877 H 0.0 **** 0.06
11204 H 53.028095773854766 57.41828296191622 6.835824990004284 H 0.0 **** 0.06
11205 H 51.64758457945572 57.61940478605666 5.730610001947213 H 0.0 **** 0.06
11206 C 12.555641523080055 84.38828454789541 71.3999478108093 C 0.0 **** -0.24
11207 H 12.414716718936972 85.3653080907724 71.86219917732606 H 0.0 **** 0.06
11208 H 13.148508993896769 83.75515921956 72.0605624079057 H 0.0 **** 0.06
11209 H 13.075082854001153 84.50832893682596 70.44939999028847 H 0.0 **** 0.06
11210 H 11.584495593860538 83.92420038761833 71.22666876148759 H 0.0 **** 0.06
11211 C 86.51726240741351 66.40054395254668 49.99276934974867 C 0.0 **** -0.24
11212 H 86.09335440843068 67.04827248291866 49.22548004197705 H 0.0 **** 0.06
11213 H 87.24347343984238 66.96226400361962 50.581592187641064 H 0.0 **** 0.06
11214 H 87.01182361083312 65.55241337355915 49.51907865200593 H 0.0 **** 0.06
11215 H 85.72104118074805 66.04062395899047 50.64413135953541 H 0.0 **** 0.06
11216 C 34.83700417371972 43.72185514560732 104.624675689362 C 0.0 **** -0.24
11217 H 34.64171094016484 43.528665271079234 105.67893860215287 H 0.0 **** 0.06
11218 H 35.842742539757495 43.384547211177505 104.37416456742466 H 0.0 **** 0.06
11219 H 34.75261509901438 44.79127151905496 104.42953913443853 H 0.0 **** 0.06
11220 H 34.11094811594219 43.182936581117616 104.01606045343226 H 0.0 **** 0.06
11221 C 42.03896420329275 74.30085613630405 37.56131909691257 C 0.0 **** -0.24
11222 H 43.042175050448606 74.21052838452047 37.978169233763566 H 0.0 **** 0.06
11223 H 42.10631448591434 74.62262390360198 36.521854524265194 H 0.0 **** 0.06
11224 H 41.473438064878536 75.03644738818562 38.13442021887727 H 0.0 **** 0.06
11225 H 41.53661112981737 73.33556092894858 37.61172349113701 H 0.0 **** 0.06
11226 C 6.745656277654206 40.910026286470895 104.67263029133778 C 0.0 **** -0.24
11227 H 7.77245906909701 40.63664327260764 104.91618500767436 H 0.0 **** 0.06
11228 H 6.299150903933565 40.12926274655763 104.0566762432675 H 0.0 **** 0.06
11229 H 6.740759199035395 41.85242364582459 104.12536404998443 H 0.0 **** 0.06
11230 H 6.171309469188088 41.019827048376925 105.59260239702672 H 0.0 **** 0.06
11231 C 52.09401404870147 12.844142380350632 45.830458414434275 C 0.0 **** -0.24
11232 H 52.02027079469258 13.388096169796682 44.8888123386551 H 0.0 **** 0.06
11233 H 52.32839081802649 13.541270215524776 46.63480375617806 H 0.0 **** 0.06
11234 H 52.88268438344355 12.095401209448767 45.75518623427473 H 0.0 **** 0.06
11235 H 51.14467379309238 12.351733627182057 46.03929036764342 H 0.0 **** 0.06
11236 C 71.47246229701474 60.303331217566324 19.436773112400004 C 0.0 **** -0.24
11237 H 71.11153274356195 59.60830122861995 18.677876304179478 H 0.0 **** 0.06
11238 H 72.07067404723574 59.76149962802117 20.170333907544318 H 0.0 **** 0.06
11239 H 70.62269686012553 60.770374125705644 19.934856203156727 H 0.0 **** 0.06
11240 H 72.08408200850471 61.07109062005617 18.964144409064886 H 0.0 **** 0.06
11241 C 56.30996715439642 42.663392875045105 53.720859073509814 C 0.0 **** -0.24
11242 H 55.28208282844392 42.53062597524675 53.38437006522415 H 0.0 **** 0.06
11243 H 56.33984948957078 42.65471219846505 54.811132391512274 H 0.0 **** 0.06
11244 H 56.69119776023393 43.61731968443419 53.35446710097301 H 0.0 **** 0.06
11245 H 56.92672308679218 41.85313397938671 53.3337315788763 H 0.0 **** 0.06
11246 C 66.7721799929086 107.18031069566587 6.853338364645552 C 0.0 **** -0.24
11247 H 66.56080933803585 107.21329250336876 5.784771685499564 H 0.0 **** 0.06
11248 H 67.71682253547186 107.6865579648343 7.052125439493764 H 0.0 **** 0.06
11249 H 66.83965687821305 106.14184419081968 7.179059672961472 H 0.0 **** 0.06
11250 H 65.97007610894539 107.67916234489206 7.397518973118451 H 0.0 **** 0.06
11251 C 29.008732263959814 13.467086205134123 51.27948173211385 C 0.0 **** -0.24
11252 H 29.298004147513666 13.754084256732781 52.29173524267648 H 0.0 **** 0.06
11253 H 27.98397512172488 13.788430032859779 51.09105106299219 H 0.0 **** 0.06
11254 H 29.07681180568528 12.383960555383851 51.176204667893415 H 0.0 **** 0.06
11255 H 29.676933725075287 13.943317194294366 50.56229350287424 H 0.0 **** 0.06
11256 C 17.486680518224034 62.51540594225305 113.55981675904923 C 0.0 **** -0.24
11257 H 16.732612026609132 62.24461336358281 112.82084164817024 H 0.0 **** 0.06
11258 H 17.416126268128664 61.841368371420664 114.41316226156383 H 0.0 **** 0.06
11259 H 17.31919321811833 63.540417836173894 113.89032355396878 H 0.0 **** 0.06
11260 H 18.4782666561795 62.43433715530757 113.11322524961005 H 0.0 **** 0.06
11261 C 12.327825778243408 49.751153678213775 53.484454930636815 C 0.0 **** -0.24
11262 H 12.687852230217743 50.07963583627905 52.508624695745794 H 0.0 **** 0.06
11263 H 12.934071637632059 48.914777697821464 53.832357655707824 H 0.0 **** 0.06
11264 H 11.288017516609699 49.43678429909588 53.39996972736574 H 0.0 **** 0.06
11265 H 12.401441096979596 50.57558891971844 54.1938218725773 H 0.0 **** 0.06
11266 C 3.4817964180209344 92.04781882256185 109.18753244588873 C 0.0 **** -0.24
11267 H 2.9341949859426393 92.02689105680273 108.24499604792658 H 0.0 **** 0.06
11268 H 3.5058448356361964 91.04446230704042 109.61475206276981 H 0.0 **** 0.06
11269 H 2.98558598567206 92.72644245391899 109.8805470509962 H 0.0 **** 0.06
11270 H 4.49998536171654 92.39201189342657 109.00866522645566 H 0.0 **** 0.06
11271 C 6.630060140330244 75.14834309482163 64.63237011711382 C 0.0 **** -0.24
11272 H 6.967055373541086 74.85630247762626 65.62724128904989 H 0.0 **** 0.06
11273 H 5.870425089185659 75.92544462855142 64.72002827738277 H 0.0 **** 0.06
11274 H 6.206434467364517 74.28191019166735 64.1242643646716 H 0.0 **** 0.06
11275 H 7.4755430666055815 75.5288180036639 64.06008737317998 H 0.0 **** 0.06
11276 C 115.78013642521707 33.123772228305086 112.86894463156781 C 0.0 **** -0.24
11277 H 116.6742603570695 32.80557509338851 113.4041119435002 H 0.0 **** 0.06
11278 H 115.82023789160455 34.200381438912075 112.70260274336098 H 0.0 **** 0.06
11279 H 114.89687474402022 32.880782343791566 113.46095893483218 H 0.0 **** 0.06
11280 H 115.72800431937449 32.60895793409304 111.90991200369143 H 0.0 **** 0.06
11281 C 74.40829343116022 63.04462858741348 84.8067191272788 C 0.0 **** -0.24
11282 H 74.57430894729461 61.9714664459785 84.8974492794795 H 0.0 **** 0.06
11283 H 75.23975112080706 63.49651275477341 84.26661275764741 H 0.0 **** 0.06
11284 H 74.3368866149165 63.48601279803247 85.80071568951743 H 0.0 **** 0.06
11285 H 73.48038238442936 63.223932568712634 84.26259840182325 H 0.0 **** 0.06
11286 C 60.96929723449421 95.8580237999085 18.22376410330402 C 0.0 **** -0.24
11287 H 61.377084283161146 96.8679769904362 18.268108368910816 H 0.0 **** 0.06
11288 H 60.898120897795884 95.53999107936193 17.18369476009788 H 0.0 **** 0.06
11289 H 59.97813790610444 95.84756623803281 18.676531064293016 H 0.0 **** 0.06
11290 H 61.62480217882223 95.17774409592039 18.768642063378607 H 0.0 **** 0.06
11291 C 82.74604278337608 74.68245586157352 26.911849420352553 C 0.0 **** -0.24
11292 H 83.58082126323231 75.18634188622539 27.398407596778043 H 0.0 **** 0.06
11293 H 82.7237861789994 73.63717369169638 27.219348906098446 H 0.0 **** 0.06
11294 H 82.86655281329428 74.74220158798434 25.83029688079165 H 0.0 **** 0.06
11295 H 81.81264216595162 75.16656314167159 27.20069645504583 H 0.0 **** 0.06
11296 C 108.76794482008344 14.805482991011104 7.867557728595131 C 0.0 **** -0.24
11297 H 107.75165407724424 14.891702592748572 8.252108685721765 H 0.0 **** 0.06
11298 H 109.30986449441971 14.052374463047613 8.438947873891522 H 0.0 **** 0.06
11299 H 109.27428412035889 15.765962980888673 7.959833364383229 H 0.0 **** 0.06
11300 H 108.73441572199457 14.51167951948105 6.8181085935790975 H 0.0 **** 0.06
11301 C 103.1974076804319 64.25553526977015 28.87350809944388 C 0.0 **** -0.24
11302 H 103.52834442598771 63.75566249705705 27.96273466160966 H 0.0 **** 0.06
11303 H 104.05407058917419 64.42667755662617 29.524844470656575 H 0.0 **** 0.06
11304 H 102.4686594053245 63.62806701838512 29.387316149572428 H 0.0 **** 0.06
11305 H 102.73840101682589 65.21031806935389 28.616496754549004 H 0.0 **** 0.06
11306 C 65.10270871633486 14.237339760926591 19.571873734054464 C 0.0 **** -0.24
11307 H 64.03543236862077 14.262174373332286 19.348778138579007 H 0.0 **** 0.06
11308 H 65.26072698298364 13.750376639562933 20.534861454569864 H 0.0 **** 0.06
11309 H 65.48877816171472 15.255388384465988 19.61033733432896 H 0.0 **** 0.06
11310 H 65.62300393481223 13.679520546453691 18.793368930198994 H 0.0 **** 0.06
11311 C 32.39289155818031 115.82222977203377 54.539619045632094 C 0.0 **** -0.24
11312 H 33.24196639656458 115.34733280456345 54.04830966893465 H 0.0 **** 0.06
11313 H 31.70718086213688 115.05521954495256 54.89960832554823 H 0.0 **** 0.06
11314 H 31.877009546372506 116.46853886086902 53.829961096213225 H 0.0 **** 0.06
11315 H 32.74767716380529 116.41649883233298 55.38204329789005 H 0.0 **** 0.06
11316 C 30.556841981898117 89.25576388821673 72.07954402333922 C 0.0 **** -0.24
11317 H 29.561114432617728 89.37817706085818 71.65214157932675 H 0.0 **** 0.06
11318 H 31.211123407693663 90.0432678144171 71.70672172871764 H 0.0 **** 0.06
11319 H 30.958078420928302 88.28292120125525 71.79251501786678 H 0.0 **** 0.06
11320 H 30.495398984322975 89.31699137511706 73.16617693869892 H 0.0 **** 0.06
11321 C 55.79083653902677 22.123800161329655 120.58693273991992 C 0.0 **** -0.24
11322 H 56.15480859045755 21.167950129070334 120.21105622817402 H 0.0 **** 0.06
11323 H 54.7151686788489 22.06141113558249 120.75627699951986 H 0.0 **** 0.06
11324 H 55.99797292656547 22.90510674257206 119.85506204024597 H 0.0 **** 0.06
11325 H 56.29322884980343 22.36140950270692 121.52441600665952 H 0.0 **** 0.06
11326 C 94.68026010239436 13.162602871921194 19.84388018462903 C 0.0 **** -0.24
11327 H 95.6103489668806 12.703784331948725 19.509236567021446 H 0.0 **** 0.06
11328 H 94.27177411775935 12.590847826906042 20.67730895349132 H 0.0 **** 0.06
11329 H 93.96382696667337 13.169274796553452 19.021908029218594 H 0.0 **** 0.06
11330 H 94.8750948957341 14.186055563334492 20.164659131419057 H 0.0 **** 0.06
11331 C 118.0800097442318 0.41596106774107966 3.5292487530761765 C 0.0 **** -0.24
11332 H 118.06140551240414 1.5055783668684342 3.513881939324367 H 0.0 **** 0.06
11333 H 118.3720537608465 0.04323995463509789 2.5471609632207652 H 0.0 **** 0.06
11334 H 117.08907997524652 0.04015538831446008 3.781096583503773 H 0.0 **** 0.06
11335 H 118.79808907885884 0.07580536815275707 4.27573808688153 H 0.0 **** 0.06
11336 C 8.218394891277626 117.90753825753292 57.57568678300848 C 0.0 **** -0.24
11337 H 7.398942331360672 117.22174694204685 57.36464222528673 H 0.0 **** 0.06
11338 H 9.144754815810359 117.50219923513154 57.168184981299646 H 0.0 **** 0.06
11339 H 8.31994107422156 118.03182326048403 58.65406184319562 H 0.0 **** 0.06
11340 H 8.010903040705017 118.87425381065532 57.1160996422814 H 0.0 **** 0.06
11341 C 103.67089583791591 24.418823888852735 18.720515782814516 C 0.0 **** -0.24
11342 H 104.51533253427971 23.846851879441104 18.335046127836677 H 0.0 **** 0.06
11343 H 102.75254081053617 24.078558976746443 18.24174237309552 H 0.0 **** 0.06
11344 H 103.8230318626363 25.476809436416893 18.507113965549365 H 0.0 **** 0.06
11345 H 103.59598596236594 24.273318019118747 19.79815611287171 H 0.0 **** 0.06
11346 C 18.477285660245695 119.73227208307372 23.79403190301376 C 0.0 **** -0.24
11347 H 17.420552163163364 119.52025482069541 23.627529063023815 H 0.0 **** 0.06
11348 H 18.922331311026866 120.10229301947467 22.86930593516859 H 0.0 **** 0.06
11349 H 18.986491640196803 118.82031478396564 24.1038628564014 H 0.0 **** 0.06
11350 H 18.577125137141934 120.48750005729079 24.573333442628382 H 0.0 **** 0.06
11351 C 13.055839656808718 54.61354139253067 83.28013441076638 C 0.0 **** -0.24
11352 H 12.958380914416935 55.45272510138913 82.59133572518192 H 0.0 **** 0.06
11353 H 13.613403456523123 54.9292635553988 84.1613229239262 H 0.0 **** 0.06
11354 H 13.585896400919388 53.79946475202052 82.78631443429234 H 0.0 **** 0.06
11355 H 12.064071916653432 54.27326461969198 83.57930265872537 H 0.0 **** 0.06
11356 C 117.88863255758952 110.39004023533789 39.279742195225595 C 0.0 **** -0.24
11357 H 117.08668626543347 110.25152214684783 38.55366637957144 H 0.0 **** 0.06
11358 H 118.81372715419624 110.63397091442164 38.75630929023362 H 0.0 **** 0.06
11359 H 118.02460908592077 109.47099948088996 39.850075099218486 H 0.0 **** 0.06
11360 H 117.62766273117137 111.20304729932397 39.95743121417553 H 0.0 **** 0.06
11361 C 86.76426698669502 55.68816104840528 109.7527132363073 C 0.0 **** -0.24
11362 H 86.55700443630019 56.31077426912998 110.62316665399999 H 0.0 **** 0.06
11363 H 85.97354046917059 54.946164389459 109.64149873267476 H 0.0 **** 0.06
11364 H 87.72095973401929 55.18283084994022 109.88710274115155 H 0.0 **** 0.06
11365 H 86.80542103689993 56.31326298888371 108.86128237459516 H 0.0 **** 0.06
11366 C 86.17906250619464 102.70829976025072 79.76805668727053 C 0.0 **** -0.24
11367 H 86.26994860696189 103.73925971037073 79.4273157604269 H 0.0 **** 0.06
11368 H 86.47254102934804 102.64455131306772 80.81568858832404 H 0.0 **** 0.06
11369 H 86.82915713360845 102.06892937949527 79.16918630907568 H 0.0 **** 0.06
11370 H 85.14574592158164 102.37886817762006 79.65895672725901 H 0.0 **** 0.06
11371 C 0.9728553336395862 59.814949569978666 104.68443922854917 C 0.0 **** -0.24
11372 H 1.091306338664225 60.753809099055246 104.14249058331743 H 0.0 **** 0.06
11373 H 1.405097673688175 59.00167692703761 104.10090573912865 H 0.0 **** 0.06
11374 H -0.08700650566098034 59.62221357682918 104.84934472382295 H 0.0 **** 0.06
11375 H 1.483957356392807 59.88320921676288 105.64484720503702 H 0.0 **** 0.06
11376 C 39.349885169582954 18.336581599517537 23.382029176549395 C 0.0 **** -0.24
11377 H 38.95067897466878 18.834785036199012 22.499530574481817 H 0.0 **** 0.06
11378 H 38.54727802938177 17.804033164337874 23.892652418448854 H 0.0 **** 0.06
11379 H 39.78068854863868 19.07833388873543 24.054459924458115 H 0.0 **** 0.06
11380 H 40.1220137848991 17.627372393625684 23.08076528228672 H 0.0 **** 0.06
11381 C 51.8538303555836 17.440062358865617 39.124471195853715 C 0.0 **** -0.24
11382 H 52.801609020171384 17.313405017220788 39.64631462914943 H 0.0 **** 0.06
11383 H 51.1831744138245 16.62145693369311 39.38562420536098 H 0.0 **** 0.06
11384 H 52.02870018741166 17.436941931191683 38.04847772570139 H 0.0 **** 0.06
11385 H 51.40181110401687 18.388263697023604 39.41574590426157 H 0.0 **** 0.06
11386 C 122.27896207430831 5.728935919146124 1.051613422337951 C 0.0 **** -0.24
11387 H 122.26873443841163 5.201112945435398 0.09775942024181461 H 0.0 **** 0.06
11388 H 122.10983436807058 5.019433745193908 1.8612859385219167 H 0.0 **** 0.06
11389 H 121.49157078274851 6.482825174679363 1.0574519389978434 H 0.0 **** 0.06
11390 H 123.24693065044082 6.213297689201482 1.1875794077778323 H 0.0 **** 0.06
11391 C 81.01386619318566 34.413660167039275 104.54634070405226 C 0.0 **** -0.24
11392 H 79.95096077731651 34.51139014245838 104.76428791455285 H 0.0 **** 0.06
11393 H 81.55302501712455 35.256202057141536 104.97993277178557 H 0.0 **** 0.06
11394 H 81.16249815089853 34.40346353856887 103.46604826140617 H 0.0 **** 0.06
11395 H 81.38859217061287 33.484141063818534 104.9738529928112 H 0.0 **** 0.06
11396 C 84.7548126385727 39.66594026459484 37.45419829561763 C 0.0 **** -0.24
11397 H 85.26123997634227 39.876320497745155 38.39657649851367 H 0.0 **** 0.06
11398 H 85.30420537198586 38.89633239195484 36.911249383112704 H 0.0 **** 0.06
11399 H 84.71328428153276 40.574747330381 36.85364750363263 H 0.0 **** 0.06
11400 H 83.74231722482952 39.31725946027166 37.65672198029449 H 0.0 **** 0.06
11401 C 56.24686190201314 83.6236839408682 41.843299816364436 C 0.0 **** -0.24
11402 H 55.84841067034617 83.32376437758441 42.812361725436745 H 0.0 **** 0.06
11403 H 56.05025461567379 84.68365259142155 41.68200762954379 H 0.0 **** 0.06
11404 H 55.76729657915709 83.04096796814 41.05781510125013 H 0.0 **** 0.06
11405 H 57.322048344836844 83.44590178662583 41.823131911183054 H 0.0 **** 0.06
11406 C 66.18266805124779 93.18503606757696 13.155672081735663 C 0.0 **** -0.24
11407 H 65.61499719730477 93.45913248112527 14.045238335840931 H 0.0 **** 0.06
11408 H 65.67346316581688 93.56455574354723 12.269975569632354 H 0.0 **** 0.06
11409 H 66.26073942757853 92.10046682024986 13.09466858997473 H 0.0 **** 0.06
11410 H 67.18109612980686 93.61940593288418 13.214284107223104 H 0.0 **** 0.06
11411 C 105.67850957038368 86.3619462470308 91.5139299641971 C 0.0 **** -0.24
11412 H 105.03224936304528 85.48622538212635 91.56309068527395 H 0.0 **** 0.06
11413 H 106.2080241419128 86.36982420531291 90.56083268342968 H 0.0 **** 0.06
11414 H 106.39968123951394 86.32796841745946 92.32977246720307 H 0.0 **** 0.06
11415 H 105.07373896242126 87.26462187251124 91.60163609268426 H 0.0 **** 0.06
11416 C 91.3046599809922 99.49750018118743 120.17428295945834 C 0.0 **** -0.24
11417 H 92.39043811669353 99.45792999926977 120.08968896498219 H 0.0 **** 0.06
11418 H 91.01266888005014 99.28479655348337 121.20354268937962 H 0.0 **** 0.06
11419 H 90.86104293108667 98.75649473784603 119.51019417916342 H 0.0 **** 0.06
11420 H 90.95490304052652 100.4912067500444 119.8956157210701 H 0.0 **** 0.06
11421 C 16.304309186219484 36.01602855466625 41.18269926806445 C 0.0 **** -0.24
11422 H 17.149804001749146 36.596600664320505 40.815030101464764 H 0.0 **** 0.06
11423 H 16.431844735500476 34.970588685873565 40.90419752742956 H 0.0 **** 0.06
11424 H 15.382303438878125 36.39989182955692 40.74419429900086 H 0.0 **** 0.06
11425 H 16.25077863384348 36.09953988493197 42.26857380718429 H 0.0 **** 0.06
11426 C 60.20061703528187 67.04460464953382 37.88747765304866 C 0.0 **** -0.24
11427 H 60.298057917272295 67.17699124918684 38.96486856381328 H 0.0 **** 0.06
11428 H 60.45521875880983 66.01812610953996 37.623587715188876 H 0.0 **** 0.06
11429 H 60.874298641928085 67.73061121182661 37.37460321957778 H 0.0 **** 0.06
11430 H 59.1729322516856 67.25272602262987 37.587244924060855 H 0.0 **** 0.06
11431 C 105.0952795402018 114.35115811007341 106.65145436515729 C 0.0 **** -0.24
11432 H 105.4067869950027 113.6238771479367 107.40128144062868 H 0.0 **** 0.06
11433 H 105.10145780668171 113.88297142710536 105.66648875157796 H 0.0 **** 0.06
11434 H 105.78363947927087 115.19594136548523 106.65753245722152 H 0.0 **** 0.06
11435 H 104.08861651945708 114.70030923461215 106.8810326249677 H 0.0 **** 0.06
11436 C 8.188408352168693 78.37773829665232 1.4660539890220718 C 0.0 **** -0.24
11437 H 8.234569209956192 77.50681675146203 0.8133673224061795 H 0.0 **** 0.06
11438 H 7.990036610580603 79.26809118309677 0.8691557283499947 H 0.0 **** 0.06
11439 H 9.140385874680902 78.49351609404499 1.9850698652190601 H 0.0 **** 0.06
11440 H 7.390466812122156 78.24326371416171 2.1951636648732347 H 0.0 **** 0.06
11441 C 102.09198666009456 23.23589982868036 81.16516352014969 C 0.0 **** -0.24
11442 H 103.08004249904789 23.454075375581823 81.57084965195514 H 0.0 **** 0.06
11443 H 101.32990731984205 23.528627604393655 81.8874111627598 H 0.0 **** 0.06
11444 H 102.01057026368511 22.16767555635016 80.96336306635172 H 0.0 **** 0.06
11445 H 101.94941298105667 23.79183631923005 80.23865908034307 H 0.0 **** 0.06
11446 C 106.57861051098382 44.475670601485376 33.73851359424768 C 0.0 **** -0.24
11447 H 106.77732971799455 45.385018370996356 33.17264138506229 H 0.0 **** 0.06
11448 H 107.11303920476064 44.514086688924586 34.6880157452546 H 0.0 **** 0.06
11449 H 106.91525428170394 43.610931192259095 33.16618074845317 H 0.0 **** 0.06
11450 H 105.50869233332799 44.391849493593895 33.92780758572209 H 0.0 **** 0.06
11451 C 95.64573242096071 85.1871132229895 53.19751757054626 C 0.0 **** -0.24
11452 H 95.23387532247523 86.03382556781673 52.647492917636875 H 0.0 **** 0.06
11453 H 95.48573442593772 85.3366135499528 54.26583891143003 H 0.0 **** 0.06
11454 H 96.7143889384684 85.11085064942452 52.99713695619001 H 0.0 **** 0.06
11455 H 95.14958775882485 84.27069340165534 52.879275103701694 H 0.0 **** 0.06
11456 C 112.23538008534976 115.5868626288118 11.996716630353866 C 0.0 **** -0.24
11457 H 113.29268658608683 115.3708526769385 11.841917352053837 H 0.0 **** 0.06
11458 H 112.13337948145451 116.49653379368769 12.589052189575508 H 0.0 **** 0.06
11459 H 111.76802594010906 114.75527533859356 12.52415839354812 H 0.0 **** 0.06
11460 H 111.74848065869563 115.72448291116343 11.030844599083508 H 0.0 **** 0.06
11461 C 18.571703546558012 118.17877993101297 112.76205233933163 C 0.0 **** -0.24
11462 H 19.328598510562188 117.66435735538198 112.17056056742874 H 0.0 **** 0.06
11463 H 17.743275456603953 117.49891315520495 112.96277163308139 H 0.0 **** 0.06
11464 H 18.20504163992041 119.04465410673606 112.21084994308356 H 0.0 **** 0.06
11465 H 19.009069279427933 118.50691404907133 113.70552168205236 H 0.0 **** 0.06
11466 C 101.69714138007629 90.5466522836065 30.445888920821687 C 0.0 **** -0.24
11467 H 101.04201674063637 89.67567305277174 30.43801481088508 H 0.0 **** 0.06
11468 H 102.1269294624482 90.66987813335632 31.440307726228014 H 0.0 **** 0.06
11469 H 101.122750039999 91.43632649797863 30.18544396457912 H 0.0 **** 0.06
11470 H 102.49738486773566 90.40520098282886 29.718558808898877 H 0.0 **** 0.06
11471 C 51.238492856152334 70.72219443834845 24.87781977922475 C 0.0 **** -0.24
11472 H 50.92577093496419 71.41045883793211 24.09226247815397 H 0.0 **** 0.06
11473 H 50.382955222038845 70.47579556167051 25.50682144083872 H 0.0 **** 0.06
11474 H 52.01321680191554 71.19267709248606 25.484048335685713 H 0.0 **** 0.06
11475 H 51.633085329503174 69.81151459839856 24.427830772242416 H 0.0 **** 0.06
11476 C 55.309297943804644 118.33846983223103 1.725959989781927 C 0.0 **** -0.24
11477 H 55.15411278543021 118.64780471986057 0.6925556157031565 H 0.0 **** 0.06
11478 H 54.68280371424823 117.47237414435637 1.9429195647316533 H 0.0 **** 0.06
11479 H 55.04391024688527 119.1570732138747 2.3941852103317274 H 0.0 **** 0.06
11480 H 56.35700727677446 118.07453212802048 1.8716898715834418 H 0.0 **** 0.06
11481 C 53.08604434884427 15.650281471527336 65.97304417859937 C 0.0 **** -0.24
11482 H 54.01871219490474 15.186679463454126 66.29522739316607 H 0.0 **** 0.06
11483 H 53.014628744480234 16.652982070553932 66.3952295469899 H 0.0 **** 0.06
11484 H 52.244576694197605 15.049879440074733 66.31774937914278 H 0.0 **** 0.06
11485 H 53.06734285808446 15.711391625393873 64.88485901989597 H 0.0 **** 0.06
11486 C 59.226467575179896 18.281360939841015 5.443120264414123 C 0.0 **** -0.24
11487 H 58.75616752882996 17.82352830869714 6.312169838713899 H 0.0 **** 0.06
11488 H 59.49871407200146 19.31114187042954 5.6772148595707925 H 0.0 **** 0.06
11489 H 58.529307919840136 18.271178237317727 4.605096473412576 H 0.0 **** 0.06
11490 H 60.12304868599554 17.72058749128745 5.177619567772876 H 0.0 **** 0.06
11491 C 1.8980376209056544 117.78307025127174 39.790100082439714 C 0.0 **** -0.24
11492 H 0.946447668054418 117.36055998323519 40.11302232711811 H 0.0 **** 0.06
11493 H 2.707297150797899 117.10247773703026 40.057640845792044 H 0.0 **** 0.06
11494 H 2.054591146817245 118.74404690695258 40.28160295223956 H 0.0 **** 0.06
11495 H 1.8841097864789162 117.92573647916294 38.70940747536385 H 0.0 **** 0.06
11496 C 63.991068062582436 74.40910405838045 98.35280033246931 C 0.0 **** -0.24
11497 H 63.230075439730946 74.36659338933302 99.132244505876 H 0.0 **** 0.06
11498 H 64.45193947425264 75.39711139381865 98.3490317176173 H 0.0 **** 0.06
11499 H 63.52823905853389 74.22008258452652 97.38395754231445 H 0.0 **** 0.06
11500 H 64.75108928255503 73.65267062545462 98.54661544050938 H 0.0 **** 0.06
11501 C 67.52431072216973 15.053650126476953 48.555062326154655 C 0.0 **** -0.24
11502 H 67.17765455270745 15.964700176139246 48.06650887066604 H 0.0 **** 0.06
11503 H 67.36867655823852 14.203705691510123 47.89008215059323 H 0.0 **** 0.06
11504 H 66.96411187057689 14.900960993723857 49.47761227706252 H 0.0 **** 0.06
11505 H 68.58504473359608 15.145972229869557 48.784505165145845 H 0.0 **** 0.06
11506 C 41.06030728371877 8.701209467319757 110.97069491675751 C 0.0 **** -0.24
11507 H 41.09019771516779 9.554817760047545 111.64816491335165 H 0.0 **** 0.06
11508 H 41.77047741087665 8.856889499101818 110.15876066367713 H 0.0 **** 0.06
11509 H 40.055451335693135 8.598710076104606 110.55951783233974 H 0.0 **** 0.06
11510 H 41.323786339981666 7.795513724389469 111.5166052722297 H 0.0 **** 0.06
11511 C 59.39892616517807 87.91580610893402 65.85429662515278 C 0.0 **** -0.24
11512 H 59.9995513472075 88.4060676465214 65.08843428795933 H 0.0 **** 0.06
11513 H 59.22655637509885 88.60759232014215 66.67834491248914 H 0.0 **** 0.06
11514 H 59.92592609398798 87.03572431186873 66.22118920719947 H 0.0 **** 0.06
11515 H 58.44235051593685 87.61416906566956 65.42603230893451 H 0.0 **** 0.06
11516 C 93.06978592541839 1.3190937577074635 75.17656849042979 C 0.0 **** -0.24
11517 H 93.76183944144998 2.126904886134483 75.41856508084803 H 0.0 **** 0.06
11518 H 92.06147185231794 1.6037015364280478 75.47661390441681 H 0.0 **** 0.06
11519 H 93.36693496106409 0.415215080169105 75.7092090502785 H 0.0 **** 0.06
11520 H 93.09162985256705 1.1317604446621203 74.10292413038798 H 0.0 **** 0.06
11521 C 96.36879203183989 113.93536930633395 27.78011039703466 C 0.0 **** -0.24
11522 H 96.94173495377669 113.14663324144661 27.29248250625193 H 0.0 **** 0.06
11523 H 95.32994098174112 113.8833786651242 27.453583794618112 H 0.0 **** 0.06
11524 H 96.7851940000684 114.90658794374492 27.51308815033059 H 0.0 **** 0.06
11525 H 96.41734961522778 113.8034286833537 28.86124636956373 H 0.0 **** 0.06
11526 C 48.57988383783274 72.50980340214164 34.4013055513372 C 0.0 **** -0.24
11527 H 49.3793286568544 71.87460951855661 34.017372034072366 H 0.0 **** 0.06
11528 H 48.014735230974566 71.96470667859225 35.15723592842744 H 0.0 **** 0.06
11529 H 47.916321256398504 72.79069404225129 33.58294846325043 H 0.0 **** 0.06
11530 H 49.01056625889581 73.40704281949047 34.84515031820254 H 0.0 **** 0.06
11531 C 78.24782556828893 3.88577786841833 30.11127066709244 C 0.0 **** -0.24
11532 H 79.08026071395295 3.6938253185506795 29.43337381301697 H 0.0 **** 0.06
11533 H 77.43378142003195 4.3576759601769055 29.560415437950667 H 0.0 **** 0.06
11534 H 78.57768617350507 4.548182464869953 30.911975540942365 H 0.0 **** 0.06
11535 H 77.90196709020245 2.9438487498961194 30.536472445642232 H 0.0 **** 0.06
11536 C 72.24077489055622 67.85593115473517 60.86689148458055 C 0.0 **** -0.24
11537 H 71.54627277820899 68.37500447880058 60.206322161642845 H 0.0 **** 0.06
11538 H 73.26180259697242 68.15864866079454 60.63131400576796 H 0.0 **** 0.06
11539 H 72.13986930456113 66.77979960691522 60.72728466900591 H 0.0 **** 0.06
11540 H 72.01604114766556 68.11022103826659 61.90310554253773 H 0.0 **** 0.06
11541 C 74.75760556946418 57.494042755951966 55.060539288847814 C 0.0 **** -0.24
11542 H 74.99410424231385 58.556923393257875 54.99666168607687 H 0.0 **** 0.06
11543 H 74.38062722330724 57.14838022357358 54.09688531181154 H 0.0 **** 0.06
11544 H 73.99862219339704 57.33633005156548 55.82653083116244 H 0.0 **** 0.06
11545 H 75.65731278705519 56.93721595929213 55.319678037781706 H 0.0 **** 0.06
11546 C 43.379118002477384 29.484907243302146 27.21560602569997 C 0.0 **** -0.24
11547 H 44.05107705670372 29.91355207605958 26.47151207155335 H 0.0 **** 0.06
11548 H 42.85392458765338 30.28760024256946 27.73493256268827 H 0.0 **** 0.06
11549 H 43.95729914857961 28.904209636310938 27.93450587461092 H 0.0 **** 0.06
11550 H 42.655396076008486 28.836992424982064 26.72174262843052 H 0.0 **** 0.06
11551 C 40.625031641840486 58.95089559333766 94.55070665405799 C 0.0 **** -0.24
11552 H 41.129229818245754 57.996224848441756 94.70322924215819 H 0.0 **** 0.06
11553 H 41.32815201475461 59.765119962948404 94.73016312926782 H 0.0 **** 0.06
11554 H 39.7874746765448 59.034909997961535 95.2433299637309 H 0.0 **** 0.06
11555 H 40.25716524151496 59.00792039287802 93.52634314362916 H 0.0 **** 0.06
11556 C 57.4513675776505 8.32980996254119 115.4470002133403 C 0.0 **** -0.24
11557 H 56.46705491751868 8.387938189954127 115.91044898720243 H 0.0 **** 0.06
11558 H 57.69756116908471 7.287680108370921 115.2455401347594 H 0.0 **** 0.06
11559 H 58.195388342465634 8.755550952129084 116.1207456227946 H 0.0 **** 0.06
11560 H 57.44567971637619 8.89049291938312 114.51156102560834 H 0.0 **** 0.06
11561 C 20.21844907214657 83.90517081436158 98.75046483667938 C 0.0 **** -0.24
11562 H 19.675172743624458 83.94672688626702 97.80598132773457 H 0.0 **** 0.06
11563 H 20.24264311305899 84.89945507459862 99.19918047334949 H 0.0 **** 0.06
11564 H 21.23682147951382 83.56311183125291 98.56901412611856 H 0.0 **** 0.06
11565 H 19.71691110312581 83.2131030826354 99.4275778983675 H 0.0 **** 0.06
11566 C 98.3141338726432 81.44103837136211 114.90732264195621 C 0.0 **** -0.24
11567 H 97.29124939329222 81.40022847754292 115.28174623402978 H 0.0 **** 0.06
11568 H 98.71707152970885 82.44174623260116 115.06264533454664 H 0.0 **** 0.06
11569 H 98.32139420083041 81.20654856821724 113.84370624040059 H 0.0 **** 0.06
11570 H 98.92585703282356 80.71611214924158 115.44399279822004 H 0.0 **** 0.06
11571 C 12.651102773933388 77.38573555685491 101.07486056323984 C 0.0 **** -0.24
11572 H 12.222647384372578 76.70389653498171 100.3396295050753 H 0.0 **** 0.06
11573 H 13.739369564754895 77.35243117194977 101.00994966243118 H 0.0 **** 0.06
11574 H 12.336970001562293 77.0844042536828 102.07457663355262 H 0.0 **** 0.06
11575 H 12.306025448131521 78.40005788951555 100.87536381410857 H 0.0 **** 0.06
11576 C 5.542502183146365 74.22980277598151 3.3405867507822506 C 0.0 **** -0.24
11577 H 4.65346362678917 74.63599371112775 3.8247009833592642 H 0.0 **** 0.06
11578 H 6.082442189110306 75.0332197934431 2.8405967968842134 H 0.0 **** 0.06
11579 H 5.245346398422527 73.47866130187788 2.608532058675692 H 0.0 **** 0.06
11580 H 6.186004359068082 73.77060097721937 4.091498081878015 H 0.0 **** 0.06
11581 C 12.000492162424752 11.448670496226654 96.34377864960516 C 0.0 **** -0.24
11582 H 11.473940831560906 11.13376473374376 95.44232080894852 H 0.0 **** 0.06
11583 H 11.391367353317023 12.17385367282651 96.88514411032227 H 0.0 **** 0.06
11584 H 12.951141555363435 11.906521013159903 96.06834657557127 H 0.0 **** 0.06
11585 H 12.185240649892762 10.58164664855633 96.97846424552765 H 0.0 **** 0.06
11586 C 116.64472345731892 62.96931237836185 51.063193428544594 C 0.0 **** -0.24
11587 H 116.24848097765583 62.56432447732453 50.13243041672058 H 0.0 **** 0.06
11588 H 115.84129877723869 63.45038267836321 51.621240283229156 H 0.0 **** 0.06
11589 H 117.4216649319041 63.700161215974475 50.839217889962356 H 0.0 **** 0.06
11590 H 117.06753419947022 62.16097194030874 51.65980129210163 H 0.0 **** 0.06
11591 C 20.82536570716448 23.56543439248047 39.34523056626409 C 0.0 **** -0.24
11592 H 20.421725791195996 22.801185347684857 38.681078215700694 H 0.0 **** 0.06
11593 H 21.533615942152153 24.186763341631938 38.795180396960376 H 0.0 **** 0.06
11594 H 21.334632905748293 23.087156743571725 40.18116326237052 H 0.0 **** 0.06
11595 H 20.01276139890126 24.185842650975047 39.720715393370256 H 0.0 **** 0.06
11596 C 70.59706429523186 119.90863574794753 15.746750821617965 C 0.0 **** -0.24
11597 H 69.83237339486865 120.48334249064285 15.224376333824239 H 0.0 **** 0.06
11598 H 70.80894596558605 118.99568662328397 15.190253579706763 H 0.0 **** 0.06
11599 H 70.24095340954435 119.65266959888096 16.744281000437525 H 0.0 **** 0.06
11600 H 71.50585575463734 120.50483876341511 15.828016860538057 H 0.0 **** 0.06
11601 C 58.54426872931214 17.301897069391323 51.978250213634624 C 0.0 **** -0.24
11602 H 58.875061336224235 17.45657665513697 50.95156351899829 H 0.0 **** 0.06
11603 H 57.45726429763616 17.371020425562694 52.02441814339335 H 0.0 **** 0.06
11604 H 58.98488595269967 18.065388184617937 52.620725119796276 H 0.0 **** 0.06
11605 H 58.86037439847428 16.315666444035433 52.3170738376207 H 0.0 **** 0.06
11606 C 72.76657567367769 90.45967046723558 70.50110894401791 C 0.0 **** -0.24
11607 H 72.17350054434263 91.15399659784535 71.09655857268879 H 0.0 **** 0.06
11608 H 73.58810560257623 90.07336128073493 71.10481826627898 H 0.0 **** 0.06
11609 H 73.1668718474713 90.9773887633612 69.62936478771329 H 0.0 **** 0.06
11610 H 72.136207576923 89.63271356216055 70.17506993313472 H 0.0 **** 0.06
11611 C 3.4552702054402147 87.24994762176726 60.28313603876683 C 0.0 **** -0.24
11612 H 2.927316374443734 86.38495698077293 60.6829747572441 H 0.0 **** 0.06
11613 H 2.787451108275846 88.11211238255373 60.27553483541621 H 0.0 **** 0.06
11614 H 3.783808287627025 87.0361593518403 59.26597113449509 H 0.0 **** 0.06
11615 H 4.322023578028123 87.4668757191526 60.906771246876644 H 0.0 **** 0.06
11616 C 94.4329717723933 93.73815191770237 102.30833291295184 C 0.0 **** -0.24
11617 H 94.24051264691073 92.68243010199973 102.11939901844059 H 0.0 **** 0.06
11618 H 95.25582172168308 94.07571824353118 101.67719098242344 H 0.0 **** 0.06
11619 H 94.69783119277844 93.87759353498322 103.35692659491434 H 0.0 **** 0.06
11620 H 93.53834242595752 94.31847626768135 102.07996002345047 H 0.0 **** 0.06
11621 C 32.32869102026825 119.07376320819436 35.6923928641601 C 0.0 **** -0.24
11622 H 32.420777344600964 120.00106541653608 36.257564373438754 H 0.0 **** 0.06
11623 H 33.268218051315 118.52281115578329 35.741095558386576 H 0.0 **** 0.06
11624 H 32.095351372866475 119.30447220489417 34.65325954170916 H 0.0 **** 0.06
11625 H 31.529221598129453 118.46740229286164 36.117939808827714 H 0.0 **** 0.06
11626 C 78.55776147494504 77.0868420721369 52.31518593649851 C 0.0 **** -0.24
11627 H 78.0701623158561 78.02157698311794 52.59553205334495 H 0.0 **** 0.06
11628 H 78.40540148021086 76.90336319405674 51.251777246990436 H 0.0 **** 0.06
11629 H 78.12825530145395 76.26752133983706 52.891922557084236 H 0.0 **** 0.06
11630 H 79.62505015574015 77.15757731450503 52.524182369386494 H 0.0 **** 0.06
11631 C 25.979234494323066 50.41769298946792 16.881682733710477 C 0.0 **** -0.24
11632 H 26.531809720245775 50.73756280418249 17.76552779445427 H 0.0 **** 0.06
11633 H 25.38826099185087 51.25135320780868 16.501632578020008 H 0.0 **** 0.06
11634 H 25.316073269906042 49.593352286185535 17.147170622665527 H 0.0 **** 0.06
11635 H 26.679266680095793 50.08820500448198 16.114761836961236 H 0.0 **** 0.06
11636 C 72.76972201038632 21.303513692417653 22.628171204255906 C 0.0 **** -0.24
11637 H 72.54165252526738 22.263605504213388 22.165121360471097 H 0.0 **** 0.06
11638 H 72.41377723971544 20.497083040505004 21.98687247237482 H 0.0 **** 0.06
11639 H 72.27621097144439 21.240891395819233 23.598295144827624 H 0.0 **** 0.06
11640 H 73.84724730511806 21.21247482913293 22.76239583935032 H 0.0 **** 0.06
11641 C 55.6276040951675 74.06090389169617 17.12677049866045 C 0.0 **** -0.24
11642 H 56.67247437186066 74.35754487636135 17.034784813516865 H 0.0 **** 0.06
11643 H 55.50350955510277 73.44015940047197 18.013833023553218 H 0.0 **** 0.06
11644 H 55.33272840421054 73.49467115501639 16.242570852067445 H 0.0 **** 0.06
11645 H 55.00430058219678 74.94997342420427 17.214264172561286 H 0.0 **** 0.06
11646 C 116.38562661486702 37.0141699992414 90.98932870371328 C 0.0 **** -0.24
11647 H 117.23031781838205 36.86350240053605 90.31776625367459 H 0.0 **** 0.06
11648 H 115.95473331596682 36.04907567245232 91.25335135634768 H 0.0 **** 0.06
11649 H 115.63207345636599 37.625154666600054 90.49120766658604 H 0.0 **** 0.06
11650 H 116.72489860066028 37.5213374482791 91.89252902867318 H 0.0 **** 0.06
11651 C 37.00970531872514 120.65662067698244 76.96727495198385 C 0.0 **** -0.24
11652 H 36.134526065822804 121.30574157229373 76.98698394618015 H 0.0 **** 0.06
11653 H 37.90729061145288 121.25296817222889 77.13402174059806 H 0.0 **** 0.06
11654 H 37.07597984285042 120.16467848124046 75.99685406732416 H 0.0 **** 0.06
11655 H 36.921696469959016 119.90414957842577 77.750579991775 H 0.0 **** 0.06
11656 C 93.68697068068096 90.45549153470853 94.13412032820173 C 0.0 **** -0.24
11657 H 93.5195880031047 89.60631145319769 94.79687320232242 H 0.0 **** 0.06
11658 H 92.94927004423434 91.22992047127383 94.34434098402903 H 0.0 **** 0.06
11659 H 93.59000548315262 90.1319207940567 93.0977005944577 H 0.0 **** 0.06
11660 H 94.68910875976496 90.85208210084178 94.29929709391448 H 0.0 **** 0.06
11661 C 49.00316091396124 28.176539272937475 16.38188882959696 C 0.0 **** -0.24
11662 H 48.45039537567246 27.472512634192185 17.00503243997042 H 0.0 **** 0.06
11663 H 49.31693592047739 27.679869631537315 15.464158694632346 H 0.0 **** 0.06
11664 H 49.88045176099109 28.52925365522259 16.92354317166331 H 0.0 **** 0.06
11665 H 48.36217868162322 29.023334743394855 16.136370309728846 H 0.0 **** 0.06
11666 C 106.30067565838365 65.69290740521518 75.08568506599045 C 0.0 **** -0.24
11667 H 105.85026200183052 65.68089544032085 76.07827681908498 H 0.0 **** 0.06
11668 H 105.68709971635084 65.10602668425838 74.40146962851549 H 0.0 **** 0.06
11669 H 107.30121630645544 65.26379592243183 75.13644783695582 H 0.0 **** 0.06
11670 H 106.3633128785965 66.72010802873683 74.72737995811912 H 0.0 **** 0.06
11671 C 92.97091909187023 45.53446024334443 119.33742088544611 C 0.0 **** -0.24
11672 H 92.17126788277872 44.79706211418264 119.40109210891647 H 0.0 **** 0.06
11673 H 93.35994689469274 45.56076012832503 118.31810691171506 H 0.0 **** 0.06
11674 H 93.77159445012663 45.2621728025392 120.02510587949098 H 0.0 **** 0.06
11675 H 92.58108420192488 46.51718166071694 119.60325451574283 H 0.0 **** 0.06
11676 C 96.00078985032175 25.04712133897337 100.45061836212642 C 0.0 **** -0.24
11677 H 95.71903477625344 25.31584502715205 101.46904942292753 H 0.0 **** 0.06
11678 H 96.02391637480571 25.944107346956912 99.83118278487814 H 0.0 **** 0.06
11679 H 95.27262119544767 24.344139318156266 100.04510404735532 H 0.0 **** 0.06
11680 H 96.9875870547805 24.584393663628134 100.45713719334461 H 0.0 **** 0.06
11681 C 20.310287746666063 47.104865793391326 121.7691113311713 C 0.0 **** -0.24
11682 H 20.19253614252699 48.18800823424834 121.82344592533539 H 0.0 **** 0.06
11683 H 21.335959976280634 46.865182694125394 121.48683190256273 H 0.0 **** 0.06
11684 H 19.62384847896368 46.702082795638574 121.02387703457504 H 0.0 **** 0.06
11685 H 20.087873903927658 46.66680544338462 122.74175427813753 H 0.0 **** 0.06
11686 C 94.48296091814817 9.066260442350085 74.55981366826282 C 0.0 **** -0.24
11687 H 93.50904984571179 9.532782154906641 74.41487647178141 H 0.0 **** 0.06
11688 H 94.59387012044058 8.772033316277543 75.60407309273069 H 0.0 **** 0.06
11689 H 95.2683851522568 9.776257484051001 74.29666310093839 H 0.0 **** 0.06
11690 H 94.56152055835494 8.18557196219163 73.92243127950397 H 0.0 **** 0.06
11691 C 85.06454852252571 79.13590252316101 113.1456538172703 C 0.0 **** -0.24
11692 H 84.57730555825273 79.61630944991839 113.99531181884632 H 0.0 **** 0.06
11693 H 85.01976344004254 79.79763334800089 112.28083376400676 H 0.0 **** 0.06
11694 H 84.5537750258662 78.20054533392852 112.91660906035798 H 0.0 **** 0.06
11695 H 86.10580735932356 78.93043773756958 113.3934508534445 H 0.0 **** 0.06
11696 C 109.69211945875225 36.21973541198311 73.36678367970435 C 0.0 **** -0.24
11697 H 110.41379710900912 35.403187354263125 73.32275135158145 H 0.0 **** 0.06
11698 H 109.73653869216264 36.69033343321695 74.34984505125689 H 0.0 **** 0.06
11699 H 108.6898756654981 35.8283947074556 73.19492353474587 H 0.0 **** 0.06
11700 H 109.93130817623666 36.95716639436125 72.60046818248514 H 0.0 **** 0.06
11701 C 118.59538050194881 112.53950960066679 9.807243772071729 C 0.0 **** -0.24
11702 H 119.65626993367873 112.31735237871719 9.699434587619521 H 0.0 **** 0.06
11703 H 118.43763986435789 113.61471826504389 9.71047357075048 H 0.0 **** 0.06
11704 H 118.25291536360906 112.20956831405202 10.788154837461263 H 0.0 **** 0.06
11705 H 118.03378696159363 112.01892897034989 9.03179189706998 H 0.0 **** 0.06
11706 C 1.546490271696399 57.980919930476176 60.49491280614018 C 0.0 **** -0.24
11707 H 1.2177636184377576 58.49035493263298 59.589527887518614 H 0.0 **** 0.06
11708 H 0.686066584072222 57.78564487115008 61.13511267340999 H 0.0 **** 0.06
11709 H 2.259997033188796 58.610784668295764 61.02729021568541 H 0.0 **** 0.06
11710 H 2.0229942337593485 57.03837744894179 60.22797143484911 H 0.0 **** 0.06
11711 C 36.90758455317979 104.08047372956543 120.72293210235944 C 0.0 **** -0.24
11712 H 37.33084460636786 103.62966010548803 119.82441653630468 H 0.0 **** 0.06
11713 H 36.13302273742926 104.79413376461156 120.44026173620966 H 0.0 **** 0.06
11714 H 37.693539477637955 104.59515692242894 121.27526549281257 H 0.0 **** 0.06
11715 H 36.47273801490496 103.30081069984081 121.34968426307381 H 0.0 **** 0.06
11716 C 108.42389040204819 84.39940097164501 76.42596134470472 C 0.0 **** -0.24
11717 H 107.46889012821055 83.88440104564071 76.53352863671981 H 0.0 **** 0.06
11718 H 108.26870596299932 85.47454486535673 76.52315497902774 H 0.0 **** 0.06
11719 H 108.84563613731262 84.17925202006259 75.44545531099828 H 0.0 **** 0.06
11720 H 109.10928476256959 84.05864245191137 77.20209106301104 H 0.0 **** 0.06
11721 C 10.967763817530273 71.84208238573785 73.41074563396825 C 0.0 **** -0.24
11722 H 10.126758475895514 72.5023587513611 73.62240635972461 H 0.0 **** 0.06
11723 H 11.546579033073904 72.24554858915783 72.57919517604543 H 0.0 **** 0.06
11724 H 10.596149832333676 70.85204806534225 73.14832961830461 H 0.0 **** 0.06
11725 H 11.603092342569585 71.76929688129343 74.29473216727669 H 0.0 **** 0.06
11726 C 33.687775300649626 102.90804234146293 5.781023184115327 C 0.0 **** -0.24
11727 H 34.50783565940111 102.1898759452786 5.808829953655675 H 0.0 **** 0.06
11728 H 34.05943176721149 103.89363694096332 6.066356398746507 H 0.0 **** 0.06
11729 H 32.908849235893975 102.59772530256612 6.476934533578259 H 0.0 **** 0.06
11730 H 33.27821033182095 102.9527597386788 4.772473257843927 H 0.0 **** 0.06
11731 C 112.78562573243522 113.22651789988677 109.27834704274122 C 0.0 **** -0.24
11732 H 113.47519315977502 113.49859156418054 110.077188572512 H 0.0 **** 0.06
11733 H 113.29115292287588 112.56999371532973 108.57051559644296 H 0.0 **** 0.06
11734 H 112.45182267065863 114.12781421177289 108.76396428935362 H 0.0 **** 0.06
11735 H 111.92352517198387 112.71020317222522 109.7019717811699 H 0.0 **** 0.06
11736 C 65.76548135340656 59.507339925742514 67.5589843135784 C 0.0 **** -0.24
11737 H 66.64376407238413 58.96296701928162 67.21048353440182 H 0.0 **** 0.06
11738 H 65.27196944116673 59.98072310881187 66.70995044738399 H 0.0 **** 0.06
11739 H 66.0720159197704 60.27033599964008 68.27456846982875 H 0.0 **** 0.06
11740 H 65.0765334372577 58.813271416064595 68.0404983936119 H 0.0 **** 0.06
11741 C 22.49253972980558 83.93522246554667 8.107528978162804 C 0.0 **** -0.24
11742 H 21.715753714867667 83.18816541227136 7.944604543151911 H 0.0 **** 0.06
11743 H 23.33769076327706 83.72990020082867 7.449162266877863 H 0.0 **** 0.06
11744 H 22.82305226584571 83.8943418215822 9.145934691970467 H 0.0 **** 0.06
11745 H 22.09492121660213 84.9263837352025 7.890517558243403 H 0.0 **** 0.06
11746 C 50.96366756407585 68.26898087248145 39.97677408054096 C 0.0 **** -0.24
11747 H 51.588520395270365 68.94656105714714 39.394970712587764 H 0.0 **** 0.06
11748 H 51.37002760330796 68.17486818503124 40.98315590502445 H 0.0 **** 0.06
11749 H 50.94657702838279 67.28984033726755 39.49832675338351 H 0.0 **** 0.06
11750 H 49.94956272552585 68.66443475720848 40.02966738907885 H 0.0 **** 0.06
11751 C 25.87881458439614 10.946268023216533 102.25895518403064 C 0.0 **** -0.24
11752 H 24.96539942452239 11.28103873927887 101.76704415784806 H 0.0 **** 0.06
11753 H 26.72984793969448 11.493562515899725 101.85440721512097 H 0.0 **** 0.06
11754 H 26.01492183836001 9.878772536468801 102.08253979048663 H 0.0 **** 0.06
11755 H 25.80317086688467 11.131065179304983 103.32984971172428 H 0.0 **** 0.06
11756 C 23.800905701064522 86.4897101216365 50.40565037534839 C 0.0 **** -0.24
11757 H 23.51537277720061 87.4180247344047 50.90052618160121 H 0.0 **** 0.06
11758 H 23.06623838075862 85.71634555123973 50.631431991119314 H 0.0 **** 0.06
11759 H 24.781429715540156 86.17458206030716 50.76297810808404 H 0.0 **** 0.06
11760 H 23.84118480064987 86.64984283018913 49.32846180738551 H 0.0 **** 0.06
11761 C 81.31422934301344 69.80678360972951 95.5496146069377 C 0.0 **** -0.24
11762 H 81.91140081010377 68.91740956859343 95.34827115655798 H 0.0 **** 0.06
11763 H 81.86278607620815 70.69315205833928 95.23207472987198 H 0.0 **** 0.06
11764 H 81.1066155126984 69.86980753516457 96.61819715323776 H 0.0 **** 0.06
11765 H 80.37496323305095 69.74485096808397 94.99981949562238 H 0.0 **** 0.06
11766 C 49.166325679549345 6.9225813322297824 10.383343742690357 C 0.0 **** -0.24
11767 H 48.68672261788424 6.111323634710118 9.835704282267358 H 0.0 **** 0.06
11768 H 48.86366013045162 6.883246186903875 11.429417546538161 H 0.0 **** 0.06
11769 H 48.86606127277213 7.8778736235103395 9.953454195883154 H 0.0 **** 0.06
11770 H 50.24961861208246 6.817500202574848 10.313668919535814 H 0.0 **** 0.06
11771 C 83.42035147268123 4.254227306447021 114.49025723735335 C 0.0 **** -0.24
11772 H 82.61940029610724 4.991079704814965 114.43486000138334 H 0.0 **** 0.06
11773 H 82.99288975902036 3.264089167773264 114.64846621368979 H 0.0 **** 0.06
11774 H 84.08369067896575 4.500951048397852 115.3184694992151 H 0.0 **** 0.06
11775 H 83.98446212330967 4.261685793673863 113.5574251552496 H 0.0 **** 0.06
11776 C 49.170397020960536 10.113098698944924 73.34105888429303 C 0.0 **** -0.24
11777 H 49.84232294264336 10.754728128207063 73.91057124396292 H 0.0 **** 0.06
11778 H 48.402076174468114 10.723408967410478 72.8657604352494 H 0.0 **** 0.06
11779 H 48.700513679885304 9.392473538771526 74.01046844417675 H 0.0 **** 0.06
11780 H 49.737351477905555 9.581837751484812 72.57619444437279 H 0.0 **** 0.06
11781 C 8.91725980710607 23.58347917146969 55.52451152931883 C 0.0 **** -0.24
11782 H 8.557515945667028 22.968449103563813 54.70072187235638 H 0.0 **** 0.06
11783 H 8.072664681231924 24.077355574043594 56.005980484858696 H 0.0 **** 0.06
11784 H 9.608083897488886 24.334621017049656 55.14243156903075 H 0.0 **** 0.06
11785 H 9.431650150352343 22.953227843869108 56.2503834198377 H 0.0 **** 0.06
11786 C 119.82353034191846 9.468813706672279 122.16510684507931 C 0.0 **** -0.24
11787 H 120.35561239705274 8.60006831207761 122.55229831621482 H 0.0 **** 0.06
11788 H 119.14448690165716 9.15409225737993 121.37215817709121 H 0.0 **** 0.06
11789 H 120.53971836837812 10.186632257530633 121.7667398030645 H 0.0 **** 0.06
11790 H 119.25225635230171 9.933119496056449 122.9691511906186 H 0.0 **** 0.06
11791 C 1.969533169753717 30.30458443822215 45.88033159864875 C 0.0 **** -0.24
11792 H 2.695125420067365 31.11568835905865 45.81595405482793 H 0.0 **** 0.06
11793 H 1.5432890113484792 30.27824956272366 46.883107003025145 H 0.0 **** 0.06
11794 H 2.4649892994181286 29.356658948289066 45.66949839487256 H 0.0 **** 0.06
11795 H 1.1755249850804912 30.468514349904638 45.15110312199644 H 0.0 **** 0.06
11796 C 82.94357176607056 67.76780341983329 111.75357773588021 C 0.0 **** -0.24
11797 H 82.57389510944597 67.26836620099016 110.85747907047823 H 0.0 **** 0.06
11798 H 83.50766453481177 68.65601884697628 111.46808717238656 H 0.0 **** 0.06
11799 H 83.59117575784407 67.08675776070459 112.3067784885434 H 0.0 **** 0.06
11800 H 82.10029166325882 68.05768114116256 112.38112833328074 H 0.0 **** 0.06
11801 C 40.5119723660412 34.92172215748829 74.07081335981911 C 0.0 **** -0.24
11802 H 41.103900619905325 34.21172124190696 74.64789804869486 H 0.0 **** 0.06
11803 H 41.09497600992629 35.82759082029398 73.90350565744407 H 0.0 **** 0.06
11804 H 39.60474308993697 35.17017591515514 74.62088686355935 H 0.0 **** 0.06
11805 H 40.24566777295244 34.478289034717534 73.11146928872498 H 0.0 **** 0.06
11806 C 85.43371187317112 95.71262867640277 107.96625827973457 C 0.0 **** -0.24
11807 H 85.54562719165227 94.73097537922547 107.50649327006076 H 0.0 **** 0.06
11808 H 86.0646570241046 96.43214493704386 107.44511371582502 H 0.0 **** 0.06
11809 H 85.73015143139321 95.65868441495266 109.01416036374147 H 0.0 **** 0.06
11810 H 84.39159389024996 96.0273657525338 107.89976851401997 H 0.0 **** 0.06
11811 C 71.99263078275604 8.597222720980824 0.009820989821946569 C 0.0 **** -0.24
11812 H 72.22220943625845 8.213463731675802 1.0034732256017946 H 0.0 **** 0.06
11813 H 70.99851686271779 8.261364076461831 -0.2885424199898807 H 0.0 **** 0.06
11814 H 72.73039851263408 8.22649642483583 -0.7016183309370376 H 0.0 **** 0.06
11815 H 72.01823071358967 9.686780090914397 0.025836832193647297 H 0.0 **** 0.06
11816 C 84.95935892592851 28.592396155998465 20.549151466429354 C 0.0 **** -0.24
11817 H 85.98141815636868 28.87565537505253 20.299059016326527 H 0.0 **** 0.06
11818 H 84.89435391850418 28.367783441090808 21.614587387825274 H 0.0 **** 0.06
11819 H 84.67524177955968 27.71170483851278 19.974170323229277 H 0.0 **** 0.06
11820 H 84.28552714822214 29.41559075667403 20.30972597668112 H 0.0 **** 0.06
11821 C 50.558513526312254 77.41481007029097 62.28559460455514 C 0.0 **** -0.24
11822 H 51.35279814400974 78.05138356447003 61.895808434148194 H 0.0 **** 0.06
11823 H 50.481294676815764 77.54996130507612 63.36467595104719 H 0.0 **** 0.06
11824 H 50.78655159946271 76.37233904211854 62.06456769719662 H 0.0 **** 0.06
11825 H 49.61244853490882 77.68748353488442 61.81672425404955 H 0.0 **** 0.06
11826 C 119.70616282339051 73.11109407185324 21.759372753197965 C 0.0 **** -0.24
11827 H 118.81735579940967 72.8253080464257 22.32220271783973 H 0.0 **** 0.06
11828 H 119.46330378456504 73.16345298461047 20.698440561244553 H 0.0 **** 0.06
11829 H 120.4893237866327 72.37004857095522 21.917311232277882 H 0.0 **** 0.06
11830 H 120.05464544312366 74.0859216771662 22.101744159426573 H 0.0 **** 0.06
11831 C 122.3532518091787 21.327214603904736 90.57928246680729 C 0.0 **** -0.24
11832 H 123.35129166810258 21.695411209061717 90.34104131533769 H 0.0 **** 0.06
11833 H 121.63292327217914 21.753062438974922 89.87936199924496 H 0.0 **** 0.06
11834 H 122.09065929172071 21.621437191220224 91.59535793569427 H 0.0 **** 0.06
11835 H 122.33836788485553 20.240255168194267 90.49987353917237 H 0.0 **** 0.06
11836 C 16.709168299320098 12.129228593940667 109.17948936578233 C 0.0 **** -0.24
11837 H 17.434144541714545 11.340352852924354 108.97761892774571 H 0.0 **** 0.06
11838 H 16.418653734384748 12.604812438308983 108.24236532843213 H 0.0 **** 0.06
11839 H 17.154660777106955 12.871645486225503 109.84124967733328 H 0.0 **** 0.06
11840 H 15.82918599536886 11.69791536043573 109.6571829869028 H 0.0 **** 0.06
11841 C 59.50016116939276 81.22671672900123 39.775439791837506 C 0.0 **** -0.24
11842 H 59.41419085058157 80.57672158863392 40.6471866856689 H 0.0 **** 0.06
11843 H 58.74372139539435 80.95006727858248 39.04123337541741 H 0.0 **** 0.06
11844 H 60.49140545902291 81.11523121762002 39.33624296099681 H 0.0 **** 0.06
11845 H 59.35048495896516 82.26227777379822 40.07901749104568 H 0.0 **** 0.06
11846 C 110.20063127646901 68.38140920473563 73.0983630268556 C 0.0 **** -0.24
11847 H 110.49446762648915 67.43950282844665 72.63510207574771 H 0.0 **** 0.06
11848 H 110.51278516907553 68.38454404271894 74.1434488298469 H 0.0 **** 0.06
11849 H 109.11781052871638 68.49156158150188 73.0413297096973 H 0.0 **** 0.06
11850 H 110.6791560948244 69.20858550780105 72.57335299632314 H 0.0 **** 0.06
11851 C 69.29622016748894 115.35741202903415 122.60764908979513 C 0.0 **** -0.24
11852 H 69.12773535136611 116.38591827919734 122.28871354810687 H 0.0 **** 0.06
11853 H 70.36743174751268 115.15390639158497 122.62480708317915 H 0.0 **** 0.06
11854 H 68.80813717560227 114.67596459529531 121.91023130507324 H 0.0 **** 0.06
11855 H 68.88279668311424 115.21362890452298 123.60498477192957 H 0.0 **** 0.06
11856 C 22.149997510103844 101.86701337725151 71.96187215498784 C 0.0 **** -0.24
11857 H 21.54884565311599 100.97187934028466 72.12199285978795 H 0.0 **** 0.06
11858 H 21.921039425921208 102.28726453989026 70.9824456408405 H 0.0 **** 0.06
11859 H 23.207756466591803 101.60691159780683 72.00758004162986 H 0.0 **** 0.06
11860 H 21.92177188413487 102.5999213444579 72.73487411513113 H 0.0 **** 0.06
11861 C 79.05780055204826 115.43216544732286 115.7526259329419 C 0.0 **** -0.24
11862 H 80.0720128500015 115.29344363377773 116.12595923536074 H 0.0 **** 0.06
11863 H 78.36483353074777 115.48110743640389 116.59295536499744 H 0.0 **** 0.06
11864 H 78.7892613885295 114.59521537228224 115.10846804293686 H 0.0 **** 0.06
11865 H 79.0047199346863 116.36080180184943 115.18422809079735 H 0.0 **** 0.06
11866 C 2.4072650321636484 77.13637837192721 91.37494937479116 C 0.0 **** -0.24
11867 H 1.4659733097615728 76.9691726217358 91.8998906478873 H 0.0 **** 0.06
11868 H 2.5398225253100772 78.2035415903294 91.19839831618984 H 0.0 **** 0.06
11869 H 2.389016325653923 76.60963729199332 90.4204568447615 H 0.0 **** 0.06
11870 H 3.2315275866169912 76.76130479017542 91.98144023916731 H 0.0 **** 0.06
11871 C 91.32027798777966 32.97202115643074 3.3546929078293886 C 0.0 **** -0.24
11872 H 91.88947928782653 33.170091038883584 4.263988480604809 H 0.0 **** 0.06
11873 H 90.38115556837263 32.48261081001674 3.613692422219401 H 0.0 **** 0.06
11874 H 91.89998700067031 32.32277364042821 2.6987117793078994 H 0.0 **** 0.06
11875 H 91.112265683478 33.91270289521984 2.8449941066949123 H 0.0 **** 0.06
11876 C 96.27192284445036 111.80184230503332 36.654348653569855 C 0.0 **** -0.24
11877 H 97.32130725191425 112.05727582011758 36.79911804066484 H 0.0 **** 0.06
11878 H 95.96686021627039 112.07454043000982 35.64383557580095 H 0.0 **** 0.06
11879 H 95.66257383752676 112.3465080036349 37.37709433327785 H 0.0 **** 0.06
11880 H 96.13551236206683 110.73014222989354 36.79866168581469 H 0.0 **** 0.06
11881 C 16.387767793507948 17.382947740763644 12.819859333703025 C 0.0 **** -0.24
11882 H 16.652317165732853 18.394539881127418 13.12642263041774 H 0.0 **** 0.06
11883 H 16.617291164793446 16.686878665625127 13.626778168163224 H 0.0 **** 0.06
11884 H 16.959339925457126 17.110371163995048 11.932405412215846 H 0.0 **** 0.06
11885 H 15.32253069290725 17.33833195223694 12.594048664651712 H 0.0 **** 0.06
11886 C 13.49892703774691 104.95071081464067 86.12313668962611 C 0.0 **** -0.24
11887 H 12.446410201754276 105.1919720270842 85.97192323506198 H 0.0 **** 0.06
11888 H 13.787988517529612 105.2075352971454 87.14238974522033 H 0.0 **** 0.06
11889 H 14.10648920866683 105.51871357269357 85.41845504704929 H 0.0 **** 0.06
11890 H 13.652864036632764 103.884369200187 85.95872539250763 H 0.0 **** 0.06
11891 C 60.524774468930474 3.7111140774804596 86.24298692909164 C 0.0 **** -0.24
11892 H 60.60147738446716 2.6353476435872984 86.08326403447049 H 0.0 **** 0.06
11893 H 61.169071417515966 4.0020244816182515 87.07187150204027 H 0.0 **** 0.06
11894 H 59.49196263879554 3.971297893847451 86.47544176911688 H 0.0 **** 0.06
11895 H 60.83570938182555 4.235215846703712 85.33939413909852 H 0.0 **** 0.06
11896 C 96.64727012867624 45.80025217567686 27.7299739283807 C 0.0 **** -0.24
11897 H 96.99651013237235 44.7686282855939 27.762015315953505 H 0.0 **** 0.06
11898 H 95.64077543120342 45.856155398477924 28.146163132136365 H 0.0 **** 0.06
11899 H 96.63340418864135 46.14816921352462 26.696497432790665 H 0.0 **** 0.06
11900 H 97.31754754525124 46.429555428824436 28.315420532411196 H 0.0 **** 0.06
11901 C 121.12048626176173 20.274857438236637 96.66667144213403 C 0.0 **** -0.24
11902 H 120.33819229136365 20.48261375297629 97.39789827653925 H 0.0 **** 0.06
11903 H 121.37380357004278 19.21505147937509 96.69877776496423 H 0.0 **** 0.06
11904 H 122.00405465071175 20.868455746723612 96.90303371659792 H 0.0 **** 0.06
11905 H 120.7643566014016 20.53463972057949 95.66978029452827 H 0.0 **** 0.06
11906 C 101.14413163862037 52.25482934791387 110.17818417307646 C 0.0 **** -0.24
11907 H 101.82083751214293 53.0289617142663 109.81692478157649 H 0.0 **** 0.06
11908 H 101.71784738719538 51.367536621180534 110.44673586532556 H 0.0 **** 0.06
11909 H 100.43009499750147 52.00268139662279 109.39513555973656 H 0.0 **** 0.06
11910 H 100.60894796752405 52.620838644184346 111.05419658424881 H 0.0 **** 0.06
11911 C 39.63279215715838 29.382317507020105 21.141855654493412 C 0.0 **** -0.24
11912 H 40.347627648406984 30.01320275947461 21.670033788164574 H 0.0 **** 0.06
11913 H 39.9838847579274 29.209527457848935 20.123659793808287 H 0.0 **** 0.06
11914 H 38.66363180695225 29.879437584106256 21.112412027477205 H 0.0 **** 0.06
11915 H 39.53686023198907 28.42889525986584 21.6602745495359 H 0.0 **** 0.06
11916 C 95.20105390154708 44.928303198696256 4.640022248670652 C 0.0 **** -0.24
11917 H 95.74877911565284 45.861239005439586 4.504992520718023 H 0.0 **** 0.06
11918 H 95.88107659323543 44.08619413283276 4.515501035943483 H 0.0 **** 0.06
11919 H 94.40379239982792 44.86438371983189 3.89917101302113 H 0.0 **** 0.06
11920 H 94.76936998793161 44.90210980538299 5.640662066958846 H 0.0 **** 0.06
11921 C 38.32984311671356 82.60213028211896 94.47153433954063 C 0.0 **** -0.24
11922 H 38.471544823718034 83.29479245068626 95.3011841933087 H 0.0 **** 0.06
11923 H 37.55679563365288 82.9863812424457 93.80580170780951 H 0.0 **** 0.06
11924 H 38.02450916529028 81.63003438445438 94.85933699569341 H 0.0 **** 0.06
11925 H 39.26517183622144 82.49786405078817 93.92150899812677 H 0.0 **** 0.06
11926 C 113.14207332584046 96.22397000115112 24.54457142840115 C 0.0 **** -0.24
11927 H 113.20605001670584 97.25441497142114 24.19378613347923 H 0.0 **** 0.06
11928 H 114.00291908410752 96.00088933379996 25.175452372803477 H 0.0 **** 0.06
11929 H 113.13194491328613 95.54867107563226 23.689377958288034 H 0.0 **** 0.06
11930 H 112.22608101757453 96.09415505376211 25.121960694720983 H 0.0 **** 0.06
11931 C 47.39694264578074 70.80178618341151 89.28843943303485 C 0.0 **** -0.24
11932 H 47.079173144656494 70.45382480799549 88.30531147497464 H 0.0 **** 0.06
11933 H 48.45130803593182 70.56411487072012 89.43329162993717 H 0.0 **** 0.06
11934 H 46.803261193141566 70.30905383151571 90.05722105951043 H 0.0 **** 0.06
11935 H 47.25536556861195 71.88056209457449 89.35461040975764 H 0.0 **** 0.06
11936 C 111.73157563345512 105.3604294096433 1.0531185988223317 C 0.0 **** -0.24
11937 H 111.04451857178182 104.95550876316668 1.7963460266493492 H 0.0 **** 0.06
11938 H 112.71849109330788 105.4827681270618 1.4999275854563194 H 0.0 **** 0.06
11939 H 111.36575551432463 106.32737554930821 0.7086481395729134 H 0.0 **** 0.06
11940 H 111.79724330132129 104.6746921206911 0.207720869547396 H 0.0 **** 0.06
11941 C 3.205779357767071 54.42724973599562 121.11036285253229 C 0.0 **** -0.24
11942 H 2.2123990742949786 54.02679905971079 121.31284989147343 H 0.0 **** 0.06
11943 H 3.868031622666493 53.61649867266036 120.80445950783192 H 0.0 **** 0.06
11944 H 3.5983453713861735 54.89666524720288 122.01198643914051 H 0.0 **** 0.06
11945 H 3.14353988760422 55.166197717039076 120.31270556302222 H 0.0 **** 0.06
11946 C 23.14712744417011 78.06020821536319 86.0089214466968 C 0.0 **** -0.24
11947 H 23.507344614182927 77.74742053645116 86.98924313698618 H 0.0 **** 0.06
11948 H 22.175390810847233 77.60420497476164 85.81803111266908 H 0.0 **** 0.06
11949 H 23.855618054251664 77.74292576647099 85.24417704725707 H 0.0 **** 0.06
11950 H 23.051151351348636 79.14597698637047 85.98722073244477 H 0.0 **** 0.06
11951 C 39.55041717427511 106.01195271616558 53.87642980724914 C 0.0 **** -0.24
11952 H 38.91522923253615 105.48373379487262 54.58786793383598 H 0.0 **** 0.06
11953 H 39.086394129933126 106.96372042851738 53.61354944157051 H 0.0 **** 0.06
11954 H 39.67182243852801 105.4062004608632 52.97869372774301 H 0.0 **** 0.06
11955 H 40.52537736948534 106.19500479455567 54.32669596265649 H 0.0 **** 0.06
11956 C 60.63327473709626 100.60300374496683 73.38268083491263 C 0.0 **** -0.24
11957 H 59.615085379582126 100.73577285940723 73.74904533795905 H 0.0 **** 0.06
11958 H 60.71682134068129 99.63888684547635 72.88205957711784 H 0.0 **** 0.06
11959 H 61.32841943552336 100.63810289573155 74.22193470955264 H 0.0 **** 0.06
11960 H 60.87254636679393 101.40080647017157 72.67927550994537 H 0.0 **** 0.06
11961 C 34.2207876840819 43.13592074869888 93.03062277407332 C 0.0 **** -0.24
11962 H 35.05613122160622 42.66343832319137 92.51357183221194 H 0.0 **** 0.06
11963 H 34.576447540627356 44.01845887992421 93.56275872158619 H 0.0 **** 0.06
11964 H 33.78971599819266 42.431813410388585 93.74265592886832 H 0.0 **** 0.06
11965 H 33.46350273501062 43.429364248927286 92.30477950272348 H 0.0 **** 0.06
11966 C 113.5535588599144 32.588406900536256 108.40864600654712 C 0.0 **** -0.24
11967 H 113.15502907228375 33.00110465199538 107.48137757084896 H 0.0 **** 0.06
11968 H 112.93546328631777 31.74946115999279 108.72707965619523 H 0.0 **** 0.06
11969 H 113.54844091729998 33.35798845976643 109.18010250038725 H 0.0 **** 0.06
11970 H 114.57570219741064 32.24600726074897 108.24403230842734 H 0.0 **** 0.06
11971 C 107.18278167408363 36.37503087097999 18.1147484037659 C 0.0 **** -0.24
11972 H 106.5702892714938 35.69307716081086 17.524362631704022 H 0.0 **** 0.06
11973 H 107.79211202060418 35.802522833090975 18.813494537598185 H 0.0 **** 0.06
11974 H 106.53568210487293 37.055578879197725 18.669030589445192 H 0.0 **** 0.06
11975 H 107.82974619519487 36.94787175985553 17.451116503739982 H 0.0 **** 0.06
11976 C 108.5557149234408 114.59455146725804 13.245798170189943 C 0.0 **** -0.24
11977 H 107.69005702514949 114.79976589059379 12.6159421724713 H 0.0 **** 0.06
11978 H 109.46358013610651 114.64875641625139 12.643965321083158 H 0.0 **** 0.06
11979 H 108.46421207469399 113.59692355505459 13.674949530477225 H 0.0 **** 0.06
11980 H 108.60579053521829 115.33228424877964 14.047256191788094 H 0.0 **** 0.06
11981 C 89.25512135848626 44.36550939814587 98.38485716326358 C 0.0 **** -0.24
11982 H 89.36029805132392 43.755952714686096 97.4866891888716 H 0.0 **** 0.06
11983 H 88.3914412744956 45.022012728052296 98.27918209656747 H 0.0 **** 0.06
11984 H 90.15403880002475 44.96691972525955 98.52204027690945 H 0.0 **** 0.06
11985 H 89.11652389873254 43.71802993049674 99.25012773264245 H 0.0 **** 0.06
11986 C 72.97232367278542 97.51607173722346 74.6014343460449 C 0.0 **** -0.24
11987 H 72.3912551309055 98.05993572894579 73.85620788677122 H 0.0 **** 0.06
11988 H 72.8134975347835 96.44508912244487 74.47505938298244 H 0.0 **** 0.06
11989 H 72.6541794513783 97.81514381012278 75.59962782435676 H 0.0 **** 0.06
11990 H 74.0311716910432 97.74405372517901 74.47331215006196 H 0.0 **** 0.06
11991 C 100.58648209367888 11.22539671742058 74.43501984248451 C 0.0 **** -0.24
11992 H 99.91018774933639 10.37959219757471 74.55621293908357 H 0.0 **** 0.06
11993 H 101.61646420730318 10.86900942187981 74.43525996625269 H 0.0 **** 0.06
11994 H 100.44337896260336 11.926448482274054 75.25754891094556 H 0.0 **** 0.06
11995 H 100.37461814253211 11.72586890047262 73.4893494583016 H 0.0 **** 0.06
11996 C 64.13222104891383 118.34629806283232 7.99152474322608 C 0.0 **** -0.24
11997 H 63.85014130688358 117.36992368626929 8.386679493035444 H 0.0 **** 0.06
11998 H 63.23335872966448 118.90778526746459 7.737489785282662 H 0.0 **** 0.06
11999 H 64.74400892369016 118.21428420552834 7.099190691637574 H 0.0 **** 0.06
12000 H 64.70206232639575 118.89182152562552 8.744360883030197 H 0.0 **** 0.06
12001 C 47.418534868398126 77.08408095747905 66.74147583627354 C 0.0 **** -0.24
12002 H 48.14777180419992 77.4537417576779 66.02115266659442 H 0.0 **** 0.06
12003 H 47.32493389907387 76.00202747560581 66.64038505707211 H 0.0 **** 0.06
12004 H 46.452746174347055 77.55254649443026 66.55403164194473 H 0.0 **** 0.06
12005 H 47.750693887946625 77.32725423732518 67.75152007148407 H 0.0 **** 0.06
12006 C 120.80034273306217 94.23323370332926 95.43589912055324 C 0.0 **** -0.24
12007 H 120.64249619099246 93.99787294937934 94.38342113541714 H 0.0 **** 0.06
12008 H 120.41966725611837 95.23380767493711 95.64364921090254 H 0.0 **** 0.06
12009 H 121.86549094212998 94.19585210331988 95.6611544391152 H 0.0 **** 0.06
12010 H 120.27187121074951 93.50724638771197 96.05389054862977 H 0.0 **** 0.06
12011 C 29.832231109185237 78.8047923048544 114.2436783271589 C 0.0 **** -0.24
12012 H 29.01281647356673 78.75661551535526 113.52677682826449 H 0.0 **** 0.06
12013 H 29.550097594601418 78.2767154265643 115.15411919770276 H 0.0 **** 0.06
12014 H 30.046201936928334 79.84772128728824 114.47975842733375 H 0.0 **** 0.06
12015 H 30.719142491915214 78.34018232175353 113.81351921822963 H 0.0 **** 0.06
12016 C 30.795652335073896 46.25119051695876 74.12287390029579 C 0.0 **** -0.24
12017 H 30.065584678529717 45.48167985351682 74.37404056198639 H 0.0 **** 0.06
12018 H 30.283295187788298 47.11031193995407 73.68936762936599 H 0.0 **** 0.06
12019 H 31.509743434837333 45.85257260005011 73.4021972793704 H 0.0 **** 0.06
12020 H 31.323307094523898 46.559193072893436 75.02465320799689 H 0.0 **** 0.06
12021 C 85.13392263063079 45.509317764949884 62.65229217545012 C 0.0 **** -0.24
12022 H 85.57549004180964 44.54159756767167 62.89140093741286 H 0.0 **** 0.06
12023 H 84.56711558210085 45.87082062879105 63.51091469942005 H 0.0 **** 0.06
12024 H 84.46867546156128 45.40267969654034 61.79552578465886 H 0.0 **** 0.06
12025 H 85.9244461620575 46.22042873348776 62.41230494403202 H 0.0 **** 0.06
12026 C 42.328941492296934 115.73775107503133 45.51765801679858 C 0.0 **** -0.24
12027 H 41.571844874258204 116.24344099301024 46.11692969449109 H 0.0 **** 0.06
12028 H 43.035907147360916 116.4718503484091 45.130739465262025 H 0.0 **** 0.06
12029 H 41.84886979684194 115.22259128691641 44.68589743479822 H 0.0 **** 0.06
12030 H 42.85825494412646 115.01302687456807 46.13661783353484 H 0.0 **** 0.06
12031 C 20.431315889344262 16.3015656712152 54.057671436615806 C 0.0 **** -0.24
12032 H 19.544916538140967 15.81532747082366 54.4639935787356 H 0.0 **** 0.06
12033 H 20.189992976645613 16.751814423089854 53.094230466812974 H 0.0 **** 0.06
12034 H 21.22249548129355 15.56359679363004 53.92635539920195 H 0.0 **** 0.06
12035 H 20.768422546212093 17.07650480559306 54.74695485781962 H 0.0 **** 0.06
12036 C 33.06271944088027 109.1961646522326 18.574365080261884 C 0.0 **** -0.24
12037 H 32.23631230900921 109.46842329842701 19.230574336369756 H 0.0 **** 0.06
12038 H 33.98674862946356 109.63380563016574 18.953179816479633 H 0.0 **** 0.06
12039 H 32.86821654052551 109.57114994326173 17.569835463848307 H 0.0 **** 0.06
12040 H 33.15974466929433 108.11062254014473 18.54511463222363 H 0.0 **** 0.06
12041 C 62.93089100622988 110.24010896956 1.2339401935392385 C 0.0 **** -0.24
12042 H 63.571903920641354 109.69088116022678 0.545523680769989 H 0.0 **** 0.06
12043 H 61.97238184058144 109.72898971322485 1.325074295988486 H 0.0 **** 0.06
12044 H 62.7714032484454 111.2490587657025 0.8544562606169208 H 0.0 **** 0.06
12045 H 63.40921858232942 110.29234301521802 2.2119291797635903 H 0.0 **** 0.06
12046 C 54.575088007765714 92.04470649366897 121.35189794150835 C 0.0 **** -0.24
12047 H 53.49468207293489 91.94360112063964 121.45391675240319 H 0.0 **** 0.06
12048 H 54.808790855901066 93.00467360103215 120.89223477784229 H 0.0 **** 0.06
12049 H 54.9565526244329 91.23863608741311 120.72451973170948 H 0.0 **** 0.06
12050 H 55.040428783816935 91.98952224932202 122.33640687076223 H 0.0 **** 0.06
12051 C 84.18735665763103 15.271822774804036 120.68224951220391 C 0.0 **** -0.24
12052 H 85.10732901016584 14.991233041510384 120.17095574915797 H 0.0 **** 0.06
12053 H 83.97643647083902 14.551751860539241 121.47279468734075 H 0.0 **** 0.06
12054 H 83.36348029132543 15.27874367294595 119.96861587873728 H 0.0 **** 0.06
12055 H 84.30065284376977 16.265852028100824 121.11586915478976 H 0.0 **** 0.06
12056 C 12.903944273505097 15.22687353387322 13.074668146771529 C 0.0 **** -0.24
12057 H 11.87878742974668 14.912337783865762 13.269092459235281 H 0.0 **** 0.06
12058 H 13.050230279778823 15.345625198226308 12.001225759979121 H 0.0 **** 0.06
12059 H 13.593293490793641 14.471823974946421 13.454332504011091 H 0.0 **** 0.06
12060 H 13.09371232869654 16.176763250257146 13.574241693370311 H 0.0 **** 0.06
12061 C 26.887933486998122 22.35104330899884 78.3797407545539 C 0.0 **** -0.24
12062 H 26.346762515906477 22.778747076787113 77.5359519314319 H 0.0 **** 0.06
12063 H 27.937568776627757 22.223275419247813 78.110585803155 H 0.0 **** 0.06
12064 H 26.457062464745462 21.382507426175636 78.6342315320764 H 0.0 **** 0.06
12065 H 26.810772315721636 23.02062242058156 79.23683184669275 H 0.0 **** 0.06
12066 C 54.83688856802624 117.08749561712659 104.79202906636584 C 0.0 **** -0.24
12067 H 53.92718459175754 116.53182118056661 104.56229708897291 H 0.0 **** 0.06
12068 H 55.60569056394982 116.84394436171391 104.058783267362 H 0.0 **** 0.06
12069 H 55.18571022966975 116.81820388891356 105.78862151215873 H 0.0 **** 0.06
12070 H 54.627132356122246 118.15656667519256 104.75726508467801 H 0.0 **** 0.06
12071 C 69.78216085146806 38.36333538237088 19.894158560207458 C 0.0 **** -0.24
12072 H 69.79553641312151 37.54517301011094 20.61313176304597 H 0.0 **** 0.06
12073 H 69.16029625129775 38.08824043536487 19.0419688236326 H 0.0 **** 0.06
12074 H 70.79820323971262 38.56528953870463 19.554018069724336 H 0.0 **** 0.06
12075 H 69.37397743940994 39.2568710088122 20.368302643583604 H 0.0 **** 0.06
12076 C 33.700602485433905 49.42914524570885 6.6793466928482985 C 0.0 **** -0.24
12077 H 34.01927387170741 48.64374381615802 7.364262920258682 H 0.0 **** 0.06
12078 H 34.50504817151344 50.1562197148252 6.560788354583508 H 0.0 **** 0.06
12079 H 32.817091201692136 49.92483114746092 7.080616407062621 H 0.0 **** 0.06
12080 H 33.46217150166345 48.99053196527274 5.7099735806981755 H 0.0 **** 0.06
12081 C 61.77658155173922 13.235538929938372 97.51314825339222 C 0.0 **** -0.24
12082 H 62.202983767269465 12.818161536611399 98.42523617760409 H 0.0 **** 0.06
12083 H 62.4512322031701 13.045232269530317 96.67672422064905 H 0.0 **** 0.06
12084 H 61.6424051700287 14.311145076531943 97.63349491179804 H 0.0 **** 0.06
12085 H 60.811552822649496 12.768558290264764 97.31630119805823 H 0.0 **** 0.06
12086 C 10.866013915971195 51.233621206594194 1.568369752856512 C 0.0 **** -0.24
12087 H 11.35771937057092 51.88988527093886 0.8498411254636267 H 0.0 **** 0.06
12088 H 11.156894137722276 50.20082505728081 1.376888863818806 H 0.0 **** 0.06
12089 H 9.784721153982105 51.331237353495226 1.469429353324955 H 0.0 **** 0.06
12090 H 11.165318355150276 51.5138475987996 2.5793011361222113 H 0.0 **** 0.06
12091 C 77.16884442895855 111.15513965357326 53.113866476283164 C 0.0 **** -0.24
12092 H 76.81684843235254 110.14785010395761 52.89097924731837 H 0.0 **** 0.06
12093 H 76.40463889704859 111.87861667102061 52.82749065013101 H 0.0 **** 0.06
12094 H 78.08297442528112 111.35206418909618 52.554511346607555 H 0.0 **** 0.06
12095 H 77.36966123931461 111.24224944965155 54.181870992233854 H 0.0 **** 0.06
12096 C 97.55089538097502 21.681967118397154 22.3351890763376 C 0.0 **** -0.24
12097 H 97.73307140948197 21.678037399686673 23.409391816100197 H 0.0 **** 0.06
12098 H 97.42649067971558 22.708505244176592 21.991005906483522 H 0.0 **** 0.06
12099 H 96.64516961825325 21.114372017463836 22.119201040095817 H 0.0 **** 0.06
12100 H 98.39660411734002 21.22607085695546 21.821578920664592 H 0.0 **** 0.06
12101 C 52.741259219501465 62.34025631353351 91.84622852621519 C 0.0 **** -0.24
12102 H 51.81776206432255 62.01841246358769 91.36566986296933 H 0.0 **** 0.06
12103 H 52.962692850786006 63.36784573213786 91.55503897399245 H 0.0 **** 0.06
12104 H 53.55898043225837 61.6899814111428 91.53496542885841 H 0.0 **** 0.06
12105 H 52.62460479428477 62.28645972490393 92.9281424516823 H 0.0 **** 0.06
12106 C 67.00618074369828 87.38222365255152 103.01167766350031 C 0.0 **** -0.24
12107 H 67.43993084340298 88.3717614094248 103.15554567029344 H 0.0 **** 0.06
12108 H 67.52785314069246 86.87109891076028 102.20072408840448 H 0.0 **** 0.06
12109 H 65.94982629306949 87.48115924009716 102.75876020885113 H 0.0 **** 0.06
12110 H 67.10718734413592 86.80426988202186 103.93040463353978 H 0.0 **** 0.06
12111 C 111.71289698471764 115.30699399690492 7.9721027202315895 C 0.0 **** -0.24
12112 H 111.04928463224053 116.08437317133203 8.351591096613788 H 0.0 **** 0.06
12113 H 111.45988399892127 115.09001241252982 6.933091800445027 H 0.0 **** 0.06
12114 H 111.5957982005728 114.4038645275053 8.570621004201314 H 0.0 **** 0.06
12115 H 112.74509822251468 115.6507254443132 8.030723245812737 H 0.0 **** 0.06
12116 C 22.659601259069376 86.72194946074808 60.58145989826648 C 0.0 **** -0.24
12117 H 22.12439633128045 86.89258051968051 59.64739734564713 H 0.0 **** 0.06
12118 H 21.942874481771668 86.57643722685683 61.38987134189134 H 0.0 **** 0.06
12119 H 23.28744616346947 87.58506576819335 60.80227460498434 H 0.0 **** 0.06
12120 H 23.283734712142717 85.8342260396062 60.48497869423607 H 0.0 **** 0.06
12121 C 36.55350638656063 1.7021937312369353 22.999493650485178 C 0.0 **** -0.24
12122 H 36.34711991906471 2.3583409125562635 23.84401572457135 H 0.0 **** 0.06
12123 H 35.64346994033613 1.5668172724571736 22.414002338552244 H 0.0 **** 0.06
12124 H 36.897790008603295 0.7347269837157704 23.366127058604924 H 0.0 **** 0.06
12125 H 37.32551469364671 2.1492280339583605 22.372897564513103 H 0.0 **** 0.06
12126 C 39.539113882417354 39.59947513233453 96.15413331745452 C 0.0 **** -0.24
12127 H 40.39003854725024 39.933537761582784 95.56065923092933 H 0.0 **** 0.06
12128 H 39.2525401563461 38.593773167627546 95.84470440172908 H 0.0 **** 0.06
12129 H 38.7012509740228 40.27960605653914 96.00139893478178 H 0.0 **** 0.06
12130 H 39.81291712399411 39.59080065528792 97.20883167725236 H 0.0 **** 0.06
12131 C 31.603918375562387 112.90561241790195 87.72870540464197 C 0.0 **** -0.24
12132 H 30.652883401740496 112.53358724826802 88.10739628022046 H 0.0 **** 0.06
12133 H 32.358647350047136 112.12140290151643 87.80750825561853 H 0.0 **** 0.06
12134 H 31.915443727821525 113.76959194503144 88.31571090691875 H 0.0 **** 0.06
12135 H 31.49087776512505 113.19753056847884 86.68458005399216 H 0.0 **** 0.06
12136 C 38.45364458334751 28.685475822280445 94.75678804567713 C 0.0 **** -0.24
12137 H 39.07396120314178 28.99320245693584 93.91433223029856 H 0.0 **** 0.06
12138 H 37.42188026288807 28.570858565158836 94.42562138307377 H 0.0 **** 0.06
12139 H 38.503545721208184 29.442987071580923 95.53900458656992 H 0.0 **** 0.06
12140 H 38.818151659779176 27.735088261130528 95.14776790717212 H 0.0 **** 0.06
12141 C 50.41040842585705 22.41730722992105 122.09568410237765 C 0.0 **** -0.24
12142 H 49.68566750701284 21.648213970392163 122.36243731636377 H 0.0 **** 0.06
12143 H 49.8989195497272 23.372015256521934 121.97365199245523 H 0.0 **** 0.06
12144 H 50.901025785647164 22.144934939799356 121.16096912026842 H 0.0 **** 0.06
12145 H 51.15658419622911 22.5016809965376 122.88570429975034 H 0.0 **** 0.06
12146 C 7.437286785715543 102.12932213994108 31.53037298943383 C 0.0 **** -0.24
12147 H 8.372853336334373 102.03440918777747 32.08155253315991 H 0.0 **** 0.06
12148 H 6.922160389246869 103.03835490446608 31.84246177977775 H 0.0 **** 0.06
12149 H 6.806128547281872 101.2644956482348 31.734408613899404 H 0.0 **** 0.06
12150 H 7.649320202108413 102.18055092772093 30.461655691988412 H 0.0 **** 0.06
12151 C 45.46040917735317 104.0767548484921 75.4224985612438 C 0.0 **** -0.24
12152 H 45.947231936059495 103.20294537770141 75.85682769856462 H 0.0 **** 0.06
12153 H 46.177108823158676 104.89617609109104 75.3566529179677 H 0.0 **** 0.06
12154 H 44.62234055167775 104.37570020802892 76.0520283667689 H 0.0 **** 0.06
12155 H 45.09649633322445 103.83093488579215 74.42466132940444 H 0.0 **** 0.06
12156 C 104.1025846011666 43.50547947603948 116.96456163057957 C 0.0 **** -0.24
12157 H 103.8449407553349 44.13146610999172 117.8183253326908 H 0.0 **** 0.06
12158 H 104.953370953339 43.94089932954695 116.43866300088587 H 0.0 **** 0.06
12159 H 103.25000234423652 43.44429493091107 116.2881075797866 H 0.0 **** 0.06
12160 H 104.36385119622975 42.50652325324597 117.31290388717724 H 0.0 **** 0.06
12161 C 106.12763759963704 59.305008512352465 98.81917253115938 C 0.0 **** -0.24
12162 H 105.56805262075338 59.67910767190636 99.67612151614804 H 0.0 **** 0.06
12163 H 106.66598282622707 60.12900462207657 98.34961207456647 H 0.0 **** 0.06
12164 H 105.43740270733929 58.86514472309714 98.09909768316416 H 0.0 **** 0.06
12165 H 106.83775347906183 58.54803716420901 99.1502569272761 H 0.0 **** 0.06
12166 C 8.639654192813154 62.790614370790536 82.41843680578046 C 0.0 **** -0.24
12167 H 8.916711046723321 61.7677000094223 82.16283974564743 H 0.0 **** 0.06
12168 H 8.85438085156511 63.44719784955009 81.57503076412996 H 0.0 **** 0.06
12169 H 9.21068001144748 63.11536958249292 83.28800432631132 H 0.0 **** 0.06
12170 H 7.574095063518797 62.83099146300975 82.64782217682733 H 0.0 **** 0.06
12171 C 21.106073939318264 112.13201702730834 6.094755548536096 C 0.0 **** -0.24
12172 H 20.635564516689044 111.60893039124791 5.261455209475628 H 0.0 **** 0.06
12173 H 20.710683187153393 111.74688637161081 7.034566513160176 H 0.0 **** 0.06
12174 H 20.893266473446943 113.19791300551712 6.019139269805343 H 0.0 **** 0.06
12175 H 22.18371279762914 111.97375133464823 6.060776766540059 H 0.0 **** 0.06
12176 C 57.75703095854968 57.62703291547357 99.48652776444598 C 0.0 **** -0.24
12177 H 57.03367184215878 56.8878128217595 99.14253304542873 H 0.0 **** 0.06
12178 H 58.763838269283646 57.296221875451955 99.23273022505111 H 0.0 **** 0.06
12179 H 57.67293193293469 57.74184709405724 100.56736087230237 H 0.0 **** 0.06
12180 H 57.556275546822945 58.583434671054285 99.00270018047019 H 0.0 **** 0.06
12181 C 69.80058514991077 108.72587607852219 88.2363448068441 C 0.0 **** -0.24
12182 H 69.8298076873458 109.60931707238319 88.87391375751264 H 0.0 **** 0.06
12183 H 70.28324607940473 108.94937049165284 87.28394157908542 H 0.0 **** 0.06
12184 H 68.7639141752309 108.43930658280897 88.06046324583065 H 0.0 **** 0.06
12185 H 70.32582598569434 107.90683859015246 88.72723355415843 H 0.0 **** 0.06
12186 C 11.667655742053654 105.03488501583172 46.52699919080078 C 0.0 **** -0.24
12187 H 11.480781975291109 104.16729354227289 45.89312346669914 H 0.0 **** 0.06
12188 H 11.288096786507566 105.93090082510304 46.035598322261876 H 0.0 **** 0.06
12189 H 12.739363441119991 105.13825143291041 46.69497563212124 H 0.0 **** 0.06
12190 H 11.160184371512315 104.9011463371267 47.482460291568884 H 0.0 **** 0.06
12191 C 64.7797098921393 37.45454955076147 65.4270184491885 C 0.0 **** -0.24
12192 H 65.25747329387985 36.549321783155875 65.80171959608268 H 0.0 **** 0.06
12193 H 65.11468731581886 37.64631658670311 64.40830230405967 H 0.0 **** 0.06
12194 H 65.04962626333673 38.296885925707244 66.06405982849759 H 0.0 **** 0.06
12195 H 63.69734068477334 37.32423027487158 65.4356752987571 H 0.0 **** 0.06
12196 C 112.81825107688869 32.98487263592405 83.43249810924553 C 0.0 **** -0.24
12197 H 113.56262794833928 32.34124936978483 83.90028464375894 H 0.0 **** 0.06
12198 H 113.260590359572 33.958754424848216 83.22199783133053 H 0.0 **** 0.06
12199 H 111.97084747108151 33.11004225298484 84.10754470012375 H 0.0 **** 0.06
12200 H 112.47793952158469 32.530284926877194 82.50286640265654 H 0.0 **** 0.06
12201 C 21.74670970101556 70.47067918241027 118.1689098292877 C 0.0 **** -0.24
12202 H 21.98032832395836 71.24102076344232 117.4336123738013 H 0.0 **** 0.06
12203 H 22.502074835715575 70.47928484621471 118.95548764150912 H 0.0 **** 0.06
12204 H 21.738540829718602 69.49479085451631 117.68243226059397 H 0.0 **** 0.06
12205 H 20.766116416353498 70.6683123644253 118.6034200569753 H 0.0 **** 0.06
12206 C 116.69359168506347 96.91176681442329 79.12819403051111 C 0.0 **** -0.24
12207 H 116.0711890779987 97.65658290426472 79.62474528603946 H 0.0 **** 0.06
12208 H 117.1162785655128 96.23684716635876 79.87361639086771 H 0.0 **** 0.06
12209 H 117.49955558524995 97.41120047410664 78.59168096353937 H 0.0 **** 0.06
12210 H 116.08672169576155 96.34192998817451 78.42482078931295 H 0.0 **** 0.06
12211 C 11.912048586804218 52.86498116231104 66.13198669164743 C 0.0 **** -0.24
12212 H 11.306212580654062 52.303627797543015 66.84315210980753 H 0.0 **** 0.06
12213 H 12.186172684731076 52.21740931775298 65.29896338349167 H 0.0 **** 0.06
12214 H 12.815006186367668 53.22190296361333 66.62760907310238 H 0.0 **** 0.06
12215 H 11.341420172953889 53.71496600102495 65.76010496192072 H 0.0 **** 0.06
12216 C 95.88228625732631 99.63123857255863 46.37824243677488 C 0.0 **** -0.24
12217 H 96.22553956220793 98.67236766558901 46.76607082323781 H 0.0 **** 0.06
12218 H 96.11593252506484 99.69754889196943 45.315901878493804 H 0.0 **** 0.06
12219 H 96.38283171176408 100.43904050980211 46.9122437620569 H 0.0 **** 0.06
12220 H 94.80416831918771 99.71590018566565 46.51999339854049 H 0.0 **** 0.06
12221 C 55.30585961826747 114.98277283706972 80.19531230555575 C 0.0 **** -0.24
12222 H 54.89845425072664 114.07237557895806 80.63543711836147 H 0.0 **** 0.06
12223 H 56.393566308188646 114.91500776909436 80.16400394519135 H 0.0 **** 0.06
12224 H 55.01249415057283 115.84139554195306 80.79949099990617 H 0.0 **** 0.06
12225 H 54.91932468927437 115.10151233299788 79.18341222472404 H 0.0 **** 0.06
12226 C 50.569530063276375 66.96209689225276 14.492055908473986 C 0.0 **** -0.24
12227 H 51.65695071713981 66.91346502185482 14.550111040452151 H 0.0 **** 0.06
12228 H 50.21529040516771 66.27481643020477 13.723919236049824 H 0.0 **** 0.06
12229 H 50.26446492410389 67.97825980919595 14.240657105777132 H 0.0 **** 0.06
12230 H 50.14150758941423 66.68382214018965 15.454579153420354 H 0.0 **** 0.06
12231 C 40.91646452605962 3.0286632485199902 116.10212221068917 C 0.0 **** -0.24
12232 H 40.345802368474885 2.1032974767269934 116.01230502757954 H 0.0 **** 0.06
12233 H 40.29719024589979 3.7925813953306147 116.57322051282262 H 0.0 **** 0.06
12234 H 41.21818245238747 3.365499056402143 115.10994727392148 H 0.0 **** 0.06
12235 H 41.80252475104573 2.8507011045963395 116.71170559035971 H 0.0 **** 0.06
12236 C 9.60777874839664 50.101594535498776 113.13110968522116 C 0.0 **** -0.24
12237 H 10.181938827782403 50.807557066230686 113.73099152888523 H 0.0 **** 0.06
12238 H 10.215919790685007 49.21917810202157 112.9287859011979 H 0.0 **** 0.06
12239 H 9.324345794994485 50.57137722605259 112.1891239483674 H 0.0 **** 0.06
12240 H 8.711126458592787 49.80812603303551 113.67580314569459 H 0.0 **** 0.06
12241 C 21.04436189954268 48.658173080116306 64.1626645968432 C 0.0 **** -0.24
12242 H 21.866463604578087 48.41047882639289 63.49029078825081 H 0.0 **** 0.06
12243 H 20.29769947445658 47.865223023732675 64.12913071817653 H 0.0 **** 0.06
12244 H 20.59161262151514 49.5991553222845 63.84931228864901 H 0.0 **** 0.06
12245 H 21.424366927646474 48.75861687008481 65.17944941490765 H 0.0 **** 0.06
12246 C 56.44464142353132 64.01550709007566 26.392384507679303 C 0.0 **** -0.24
12247 H 55.96992634856491 64.08302269136675 25.4132607168424 H 0.0 **** 0.06
12248 H 57.37166167755083 63.44870520773572 26.308347723166094 H 0.0 **** 0.06
12249 H 55.77155196295962 63.512050832550635 27.087336002644513 H 0.0 **** 0.06
12250 H 56.6629772620675 65.018274703197 26.760524074015194 H 0.0 **** 0.06
12251 C 86.8190926176629 16.338090293439045 57.399071307450896 C 0.0 **** -0.24
12252 H 86.03530101191359 15.636890798364949 57.6860924426567 H 0.0 **** 0.06
12253 H 87.74598003460778 15.791532614526034 57.219971753180516 H 0.0 **** 0.06
12254 H 86.97146041801153 17.06025335320348 58.20093892542701 H 0.0 **** 0.06
12255 H 86.52377774275905 16.861471622776808 56.48956800848262 H 0.0 **** 0.06
12256 C 86.46601789043339 69.93471773855362 39.223485615300376 C 0.0 **** -0.24
12257 H 85.5933097499634 69.5471832665745 38.697595248191874 H 0.0 **** 0.06
12258 H 86.18864273528018 70.83192447831664 39.77688440654373 H 0.0 **** 0.06
12259 H 87.24592953128405 70.17915527637126 38.5026963112079 H 0.0 **** 0.06
12260 H 86.83630442473691 69.17936193382502 39.917425585687454 H 0.0 **** 0.06
12261 C 2.287144990601032 26.369231180977067 32.965606270063134 C 0.0 **** -0.24
12262 H 1.8942104930203438 25.3675887340886 33.14058635319893 H 0.0 **** 0.06
12263 H 3.206090707496429 26.503426704280173 33.53710212682827 H 0.0 **** 0.06
12264 H 1.5516072147324067 27.109180338096536 33.28240367965873 H 0.0 **** 0.06
12265 H 2.4967930473983877 26.4977291386148 31.90374182876036 H 0.0 **** 0.06
12266 C 25.67569797221796 85.41359194843 117.02479061181592 C 0.0 **** -0.24
12267 H 24.729542289665233 85.95510942540596 117.0280148397315 H 0.0 **** 0.06
12268 H 25.581405019501005 84.51429183363632 117.63234241742924 H 0.0 **** 0.06
12269 H 26.458918215948245 86.05122168268196 117.4368847720889 H 0.0 **** 0.06
12270 H 25.933067744434595 85.13746920791402 116.00225202587856 H 0.0 **** 0.06
12271 C 86.04653113913025 72.78107532186417 105.01186975564119 C 0.0 **** -0.24
12272 H 86.26454961004086 73.8323734411633 105.19788668662855 H 0.0 **** 0.06
12273 H 86.579669436898 72.45209920999815 104.1201442505442 H 0.0 **** 0.06
12274 H 84.97415121203994 72.65360659071084 104.86285243049451 H 0.0 **** 0.06
12275 H 86.36800534439533 72.18684384491408 105.86784082653094 H 0.0 **** 0.06
12276 C 13.424131641535155 62.42723824570831 22.430277634070364 C 0.0 **** -0.24
12277 H 12.770955263295718 61.55624780388018 22.370708868951112 H 0.0 **** 0.06
12278 H 13.970989757316147 62.53640967639279 21.493662485998072 H 0.0 **** 0.06
12279 H 14.12983583820602 62.297161907749626 23.250993105491148 H 0.0 **** 0.06
12280 H 12.822541566084908 63.31918222191135 22.606119807190055 H 0.0 **** 0.06
12281 C 53.87876394855516 29.220374698483425 103.67821778691842 C 0.0 **** -0.24
12282 H 54.673669529388974 28.48079240348116 103.57880294348644 H 0.0 **** 0.06
12283 H 52.9252035086696 28.76624343590393 103.40775439907591 H 0.0 **** 0.06
12284 H 54.08118519433273 30.06185057568453 103.01653731398358 H 0.0 **** 0.06
12285 H 53.835838550635714 29.57054132739131 104.70983782576346 H 0.0 **** 0.06
12286 C 112.48285690863703 27.77584281951647 27.122411087127176 C 0.0 **** -0.24
12287 H 112.01847489444478 28.62012619942618 27.63031556185618 H 0.0 **** 0.06
12288 H 112.53512253030638 27.979984331233027 26.052111232046315 H 0.0 **** 0.06
12289 H 111.88807517814539 26.8785628328053 27.292861778092316 H 0.0 **** 0.06
12290 H 113.48903192604456 27.62533504646956 27.513320743863147 H 0.0 **** 0.06
12291 C 26.99529163020867 25.573468889910572 71.08559992803498 C 0.0 **** -0.24
12292 H 26.895369023182596 25.88310368952392 70.04551634177108 H 0.0 **** 0.06
12293 H 26.00914378991977 25.52340070645677 71.54667987191434 H 0.0 **** 0.06
12294 H 27.612335714814684 26.29429584282306 71.62177174260174 H 0.0 **** 0.06
12295 H 27.465960489613302 24.590492180701425 71.12715496145901 H 0.0 **** 0.06
12296 C 81.53062837501167 50.56585181522556 114.27126376471683 C 0.0 **** -0.24
12297 H 82.39732120411787 51.14858154321712 114.58232597574327 H 0.0 **** 0.06
12298 H 81.73848978624699 50.08794235915384 113.31371254560686 H 0.0 **** 0.06
12299 H 80.66844628868625 51.22475511139726 114.16841132308836 H 0.0 **** 0.06
12300 H 81.31862383789229 49.802857003781526 115.01945027594968 H 0.0 **** 0.06
12301 C 80.54077342364309 55.903958201742114 73.47581007214353 C 0.0 **** -0.24
12302 H 79.85647794298285 56.71836898275029 73.71489360678473 H 0.0 **** 0.06
12303 H 80.81034704882995 55.953176373441295 72.42052253033123 H 0.0 **** 0.06
12304 H 80.05690913199777 54.950160379504155 73.68354097913186 H 0.0 **** 0.06
12305 H 81.4406234331511 55.995857213210115 74.08547043586566 H 0.0 **** 0.06
12306 C 55.02225084307235 98.15719071080349 2.5228727608943586 C 0.0 **** -0.24
12307 H 55.90845840169269 98.69702844258961 2.1882647041872474 H 0.0 **** 0.06
12308 H 54.167871707988034 98.8341414979545 2.5367677980329404 H 0.0 **** 0.06
12309 H 55.19344798445349 97.76676642730436 3.5264840379008433 H 0.0 **** 0.06
12310 H 54.82077347260499 97.33079823967009 1.8407506887949125 H 0.0 **** 0.06
12311 C 119.79937698748893 101.48668681597624 28.36624508964283 C 0.0 **** -0.24
12312 H 119.99864218944742 101.5104596690343 27.294734297897293 H 0.0 **** 0.06
12313 H 118.73731208810281 101.30757127430195 28.533932017683185 H 0.0 **** 0.06
12314 H 120.08169137041993 102.44211245059321 28.809551561889805 H 0.0 **** 0.06
12315 H 120.38101863587944 100.6870086796176 28.82605598806873 H 0.0 **** 0.06
12316 C 1.6173789339977542 38.29631397204736 8.876008810764063 C 0.0 **** -0.24
12317 H 2.272851206344882 38.47818452002474 8.024197596788497 H 0.0 **** 0.06
12318 H 1.9634874685648906 38.87660409762648 9.731714027605307 H 0.0 **** 0.06
12319 H 1.633664754847663 37.234990288907355 9.126534288516723 H 0.0 **** 0.06
12320 H 0.600815153052622 38.59378509494772 8.622252947453404 H 0.0 **** 0.06
12321 C 24.714612060785555 93.73786019966838 33.55691255567064 C 0.0 **** -0.24
12322 H 25.711784100829703 93.31959688961513 33.69339641996243 H 0.0 **** 0.06
12323 H 24.76897752278211 94.82605471514523 33.59715255759558 H 0.0 **** 0.06
12324 H 24.058128958780344 93.37683881284579 34.348299689884364 H 0.0 **** 0.06
12325 H 24.32045733405866 93.42854137109794 32.588954376849244 H 0.0 **** 0.06
12326 C 81.02897912814493 56.29888035131711 58.50213018112229 C 0.0 **** -0.24
12327 H 80.05364898292652 56.35572523700432 58.98554294542445 H 0.0 **** 0.06
12328 H 81.64178790929546 57.1417164060702 58.820719058699346 H 0.0 **** 0.06
12329 H 80.90029429731948 56.3309063825792 57.420398857769335 H 0.0 **** 0.06
12330 H 81.51972600316316 55.36615456723882 58.78272655626751 H 0.0 **** 0.06
12331 C 47.45588767724266 42.85561939331052 95.94994335506493 C 0.0 **** -0.24
12332 H 46.986719101467685 41.886486797441165 96.12558817948317 H 0.0 **** 0.06
12333 H 48.292051870642865 42.7349683350929 95.2611045496594 H 0.0 **** 0.06
12334 H 47.8193611728548 43.257868115823186 96.89584511670003 H 0.0 **** 0.06
12335 H 46.725693785066426 43.539669831311755 95.52036347826504 H 0.0 **** 0.06
12336 C 11.025662884797455 75.57839281113422 87.53959641733815 C 0.0 **** -0.24
12337 H 11.9726188084569 75.04026832882789 87.5060910197767 H 0.0 **** 0.06
12338 H 10.236148087701508 74.95099361292012 87.12513194830967 H 0.0 **** 0.06
12339 H 11.107474173669374 76.49391347828362 86.95478372770685 H 0.0 **** 0.06
12340 H 10.78606215523817 75.82819650163833 88.57373509265085 H 0.0 **** 0.06
12341 C 4.9152971945234185 44.130356438867295 17.80985768581367 C 0.0 **** -0.24
12342 H 4.164561710503591 43.81812708918475 18.536496695643404 H 0.0 **** 0.06
12343 H 4.41916880981961 44.56020406315854 16.93846059253733 H 0.0 **** 0.06
12344 H 5.504737152185044 43.26667537502685 17.50295272325328 H 0.0 **** 0.06
12345 H 5.569022060100821 44.87603707102528 18.261106246899534 H 0.0 **** 0.06
12346 C 92.29393650893357 118.64979411576753 14.853091172412746 C 0.0 **** -0.24
12347 H 92.17436758808878 117.81816341470568 15.548027731077894 H 0.0 **** 0.06
12348 H 91.64774634443208 119.47329369470344 15.15693791046428 H 0.0 **** 0.06
12349 H 92.02209905273253 118.32541979054331 13.848957822474034 H 0.0 **** 0.06
12350 H 93.33295390996136 118.98117409851986 14.859750716409053 H 0.0 **** 0.06
12351 C 8.133748499369123 25.47290214366251 24.440166763953727 C 0.0 **** -0.24
12352 H 8.567042582175773 24.478872590452738 24.32480354442079 H 0.0 **** 0.06
12353 H 8.743998167451785 26.19955858260323 23.90435162817741 H 0.0 **** 0.06
12354 H 8.100831220296353 25.733548883064714 25.498481420305467 H 0.0 **** 0.06
12355 H 7.122544999349419 25.475974012138863 24.033589391143295 H 0.0 **** 0.06
12356 C 17.036222783114823 21.12591375487881 71.60139419817878 C 0.0 **** -0.24
12357 H 16.505554337361573 21.81197627730907 72.2627023181519 H 0.0 **** 0.06
12358 H 17.924957812957373 21.61860438386026 71.20605363145265 H 0.0 **** 0.06
12359 H 16.383280691441666 20.83782303556842 70.77726161481482 H 0.0 **** 0.06
12360 H 17.33065227652669 20.23793728524211 72.16032546735585 H 0.0 **** 0.06
12361 C 51.09308817502805 100.01767538000709 98.14456743937805 C 0.0 **** -0.24
12362 H 50.819256829406825 101.03547534081349 98.42469746952395 H 0.0 **** 0.06
12363 H 51.10507950900285 99.93181999092988 97.05780149608157 H 0.0 **** 0.06
12364 H 50.36494939521979 99.31990758188988 98.55744649526966 H 0.0 **** 0.06
12365 H 52.082600091464315 99.78646208788001 98.53830679894523 H 0.0 **** 0.06
12366 C 109.30815282670613 74.00429143264176 108.28940932895387 C 0.0 **** -0.24
12367 H 108.50172929889922 73.42632541800603 107.83557716539775 H 0.0 **** 0.06
12368 H 109.2413539057905 75.0411636650226 107.95847268592112 H 0.0 **** 0.06
12369 H 110.2678799624467 73.58670517857203 107.9875623661716 H 0.0 **** 0.06
12370 H 109.21728616175028 73.96218346286454 109.37449101246469 H 0.0 **** 0.06
12371 C 59.5417789675576 79.18219406398919 25.582826291713303 C 0.0 **** -0.24
12372 H 58.962128067712946 79.32277774579507 24.671056509858857 H 0.0 **** 0.06
12373 H 60.590297677176714 79.40969495313743 25.385914912090016 H 0.0 **** 0.06
12374 H 59.451328757199086 78.14776977434857 25.91496978720525 H 0.0 **** 0.06
12375 H 59.16467932579527 79.84742245748609 26.35953162085491 H 0.0 **** 0.06
12376 C 50.193878512011764 40.40818169254533 24.277741824599588 C 0.0 **** -0.24
12377 H 49.3021864988884 40.53050008976129 23.662954309203172 H 0.0 **** 0.06
12378 H 50.440953891904506 41.35867226356635 24.75273095182132 H 0.0 **** 0.06
12379 H 51.02583470408418 40.08829217140112 23.65057382307066 H 0.0 **** 0.06
12380 H 50.00689391505282 39.6565916511243 25.044381420873293 H 0.0 **** 0.06
12381 C 23.523953206465762 112.50884941995751 21.01323697647951 C 0.0 **** -0.24
12382 H 22.872382057231768 112.44494985023354 21.884924438759185 H 0.0 **** 0.06
12383 H 23.232144885417362 111.75261829638184 20.28479034379351 H 0.0 **** 0.06
12384 H 24.55636189262607 112.34149719035476 21.31815925430361 H 0.0 **** 0.06
12385 H 23.4335940962153 113.49902105591487 20.565125869342467 H 0.0 **** 0.06
12386 C 63.55133347178537 113.18104916191842 69.92451198496951 C 0.0 **** -0.24
12387 H 64.53184534553412 112.95275754004504 69.5069038916246 H 0.0 **** 0.06
12388 H 63.20597562315328 114.13940681749321 69.5368579076673 H 0.0 **** 0.06
12389 H 63.621588389218346 113.2308132917534 71.01131828443414 H 0.0 **** 0.06
12390 H 62.8454707559346 112.39935200263346 69.64182387408033 H 0.0 **** 0.06
12391 C 95.68417891674036 2.007439799077831 101.51879751358678 C 0.0 **** -0.24
12392 H 95.56071836724988 0.9636543033563498 101.22698154400462 H 0.0 **** 0.06
12393 H 95.77132707735217 2.0723958766641672 102.60346199941853 H 0.0 **** 0.06
12394 H 94.81848526820028 2.580965683247891 101.18719125866494 H 0.0 **** 0.06
12395 H 96.58543548029272 2.409102963683667 101.05577005027749 H 0.0 **** 0.06
12396 C 72.08378757035075 33.10658799901344 64.43659529371166 C 0.0 **** -0.24
12397 H 73.09399920612796 32.73889655973204 64.61797504595455 H 0.0 **** 0.06
12398 H 71.95052129597454 33.290307190897465 63.36952519207642 H 0.0 **** 0.06
12399 H 71.93084283341585 34.03405059856968 64.98766889692666 H 0.0 **** 0.06
12400 H 71.36114782359186 32.36226080775543 64.77054280213235 H 0.0 **** 0.06
12401 C 63.38655802143361 37.59615023060006 116.55928951071073 C 0.0 **** -0.24
12402 H 63.85211428309321 37.16485703644797 115.67330381323137 H 0.0 **** 0.06
12403 H 62.90951463884026 38.54171932402383 116.2953823133854 H 0.0 **** 0.06
12404 H 64.14648296039408 37.77247461032689 117.32005615499804 H 0.0 **** 0.06
12405 H 62.63591843816905 36.90675056294621 116.94676916984017 H 0.0 **** 0.06
12406 C 88.48089442686722 101.64151195038431 95.24180568685796 C 0.0 **** -0.24
12407 H 89.08940603108687 100.74278121533479 95.34266611830088 H 0.0 **** 0.06
12408 H 88.54560767140279 102.01006982143099 94.2175242409156 H 0.0 **** 0.06
12409 H 88.84631999145225 102.40632990748256 95.9268084288878 H 0.0 **** 0.06
12410 H 87.44331719458467 101.4055427172701 95.47877647394267 H 0.0 **** 0.06
12411 C 22.678106378130565 35.55202511159553 85.5738787844094 C 0.0 **** -0.24
12412 H 21.745118567980853 35.942468139037715 85.16796858033692 H 0.0 **** 0.06
12413 H 22.460980486929827 34.89523767593563 86.41626156079238 H 0.0 **** 0.06
12414 H 23.301755054947876 36.38046539069126 85.91001739965805 H 0.0 **** 0.06
12415 H 23.203832814808436 34.991476437229394 84.80151425029507 H 0.0 **** 0.06
12416 C 113.42195889182952 90.67716447906648 116.29090579891525 C 0.0 **** -0.24
12417 H 113.70316233663402 91.68769987708208 116.5869530078264 H 0.0 **** 0.06
12418 H 112.42754006494641 90.69183129824052 115.84386748268057 H 0.0 **** 0.06
12419 H 113.41663280021174 90.03042016238822 117.16896423489277 H 0.0 **** 0.06
12420 H 114.14138149842302 90.2981394748656 115.56521766031747 H 0.0 **** 0.06
12421 C 52.690511980784244 8.997164041822742 86.98304184425197 C 0.0 **** -0.24
12422 H 52.46949810843165 9.715759407662233 87.77124842131883 H 0.0 **** 0.06
12423 H 53.360795546244596 8.228593956337761 87.36995292255088 H 0.0 **** 0.06
12424 H 53.16905513665518 9.508940008064783 86.14857381592287 H 0.0 **** 0.06
12425 H 51.764128046262506 8.53342787643524 86.64285549544894 H 0.0 **** 0.06
12426 C 106.21827427599902 61.71535778929482 122.24460097472857 C 0.0 **** -0.24
12427 H 105.82653334472337 60.79070744492491 121.82253483328945 H 0.0 **** 0.06
12428 H 105.65347978708365 62.561563630514236 121.85245300572629 H 0.0 **** 0.06
12429 H 107.26895494199354 61.82166136427562 121.97418309201093 H 0.0 **** 0.06
12430 H 106.1239407651853 61.68672582325373 123.33077158993736 H 0.0 **** 0.06
12431 C 115.5908631126756 41.26273989547663 25.783782290403686 C 0.0 **** -0.24
12432 H 115.11243100667716 42.064826993850644 25.221711886337886 H 0.0 **** 0.06
12433 H 115.984508780843 41.65945778391777 26.720521971330555 H 0.0 **** 0.06
12434 H 116.40791275445982 40.84513787490875 25.194735084387553 H 0.0 **** 0.06
12435 H 114.85989141216346 40.4829266673835 25.996976612767284 H 0.0 **** 0.06
12436 C 7.418706541654501 81.81716116166228 23.909992358172985 C 0.0 **** -0.24
12437 H 7.984135070322907 82.54681216816266 24.49017780344502 H 0.0 **** 0.06
12438 H 6.656598455731 82.3305676206646 23.32466412443509 H 0.0 **** 0.06
12439 H 6.941895101746439 81.10677734459478 24.585555699243912 H 0.0 **** 0.06
12440 H 8.093916729885876 81.28361698572914 23.240706196267524 H 0.0 **** 0.06
12441 C 119.79963181506557 84.7693915104523 59.337411026766745 C 0.0 **** -0.24
12442 H 118.79071020440638 85.08270668316928 59.60588433794095 H 0.0 **** 0.06
12443 H 120.51348646270216 85.52743205058042 59.66101766613224 H 0.0 **** 0.06
12444 H 119.8656023588475 84.64582037990826 58.25635311730014 H 0.0 **** 0.06
12445 H 120.02815620881182 83.82203213257026 59.82568752742793 H 0.0 **** 0.06
12446 C 22.8091134777641 65.96895143469402 57.888628709648685 C 0.0 **** -0.24
12447 H 23.224160084234512 66.24616592937517 56.91985033357375 H 0.0 **** 0.06
12448 H 21.877332397879755 66.50991455289082 58.052966896860966 H 0.0 **** 0.06
12449 H 23.52107168615578 66.22383097451925 58.674220275847226 H 0.0 **** 0.06
12450 H 22.615121289488712 64.89658494514796 57.90739740453887 H 0.0 **** 0.06
12451 C 31.646393606599005 16.475675281256773 69.11611790411408 C 0.0 **** -0.24
12452 H 31.791196633113515 15.395305988047419 69.08387717983621 H 0.0 **** 0.06
12453 H 32.39706503151871 16.96104639737003 68.49331748848107 H 0.0 **** 0.06
12454 H 31.74366034963785 16.824690279959764 70.14374614204638 H 0.0 **** 0.06
12455 H 30.65187653011938 16.719070719371587 68.74245821314136 H 0.0 **** 0.06
12456 C 70.34494823985492 29.77135469144085 51.62965802201993 C 0.0 **** -0.24
12457 H 70.54087112507833 30.593675898503 50.94247310275738 H 0.0 **** 0.06
12458 H 70.94688213198054 28.9082242562316 51.34430279379277 H 0.0 **** 0.06
12459 H 69.28769250373097 29.507044934133056 51.5878147193423 H 0.0 **** 0.06
12460 H 70.60294727114845 30.076431253211247 52.64423772356557 H 0.0 **** 0.06
12461 C 11.566387860435896 55.94567536828441 112.68213267370375 C 0.0 **** -0.24
12462 H 11.175484784671795 55.028798963294435 113.12265343413635 H 0.0 **** 0.06
12463 H 10.856751034150278 56.32845086108756 111.9488608219534 H 0.0 **** 0.06
12464 H 12.517742663162949 55.736393351784756 112.19325621347514 H 0.0 **** 0.06
12465 H 11.716338126508788 56.68916918425438 113.46531019003719 H 0.0 **** 0.06
12466 C 65.81982745324456 25.36028395430162 78.41478716153068 C 0.0 **** -0.24
12467 H 65.73512499539837 25.049096247449015 77.37391647018504 H 0.0 **** 0.06
12468 H 65.11146221768487 24.794677186125767 79.02155145145198 H 0.0 **** 0.06
12469 H 65.59926983776694 26.424708641923957 78.49507757927361 H 0.0 **** 0.06
12470 H 66.83331732529783 25.172050583566502 78.76938921949895 H 0.0 **** 0.06
12471 C 53.88901209207842 3.9887936574973537 58.160113655247926 C 0.0 **** -0.24
12472 H 53.54152239986095 3.2220008260184727 58.851908965953385 H 0.0 **** 0.06
12473 H 53.294283689821754 3.9522594321361453 57.24736642333278 H 0.0 **** 0.06
12474 H 54.93772097157114 3.8120274883248726 57.91896930634516 H 0.0 **** 0.06
12475 H 53.784378670477565 4.970171300870959 58.62391313365015 H 0.0 **** 0.06
12476 C 41.3653512721168 119.78499552447695 62.069678762293336 C 0.0 **** -0.24
12477 H 40.49117603435684 120.33230589165882 62.42169029508506 H 0.0 **** 0.06
12478 H 41.07453216878977 118.76919067133264 61.80181147545102 H 0.0 **** 0.06
12479 H 42.116021116084255 119.75171936197336 62.86018220297743 H 0.0 **** 0.06
12480 H 41.781494084127445 120.28774142172831 61.196351285771726 H 0.0 **** 0.06
12481 C 99.40558710079122 53.73700953827074 79.06229620228385 C 0.0 **** -0.24
12482 H 99.1494149327383 53.640448400406825 78.00745267335432 H 0.0 **** 0.06
12483 H 99.23098647705984 54.763190083439895 79.3870303845124 H 0.0 **** 0.06
12484 H 100.45688171023235 53.48425601789651 79.20501097888481 H 0.0 **** 0.06
12485 H 98.78660803606547 53.05940961081504 79.64997584235505 H 0.0 **** 0.06
12486 C 87.66208943537109 110.97937480441772 81.10727187594674 C 0.0 **** -0.24
12487 H 87.51652135131013 111.36830055334855 80.09886377763755 H 0.0 **** 0.06
12488 H 88.11712631219757 109.99007859777828 81.05218445258296 H 0.0 **** 0.06
12489 H 86.69842984936082 110.9079165682424 81.6107031036803 H 0.0 **** 0.06
12490 H 88.31473389819462 111.64994066574411 81.66509683580594 H 0.0 **** 0.06
12491 C 8.636581192401394 97.03511413204893 51.453842791856324 C 0.0 **** -0.24
12492 H 8.316358451362817 98.07208587461983 51.3550343747896 H 0.0 **** 0.06
12493 H 9.097044200744989 96.88885074729319 52.432112743847426 H 0.0 **** 0.06
12494 H 9.359774599002463 96.801499861644 50.67325856751742 H 0.0 **** 0.06
12495 H 7.772518646679401 96.3775993944389 51.35729526830479 H 0.0 **** 0.06
12496 C 44.51084841618689 12.436668337593815 106.65319950362243 C 0.0 **** -0.24
12497 H 43.65190857555328 12.360398928225578 105.98611818643116 H 0.0 **** 0.06
12498 H 45.199662593445794 13.191574127350691 106.27357544360865 H 0.0 **** 0.06
12499 H 45.01919001945893 11.472961889101938 106.70234119219182 H 0.0 **** 0.06
12500 H 44.17282526823362 12.720247392768101 107.64944412654268 H 0.0 **** 0.06
12501 C 0.5441435891348334 24.12349582657083 49.34351192547314 C 0.0 **** -0.24
12502 H 1.4563413925651076 23.70819929878087 49.77191371192795 H 0.0 **** 0.06
12503 H 0.6512612822782415 24.1935552857351 48.26072448531434 H 0.0 **** 0.06
12504 H 0.3688348382362676 25.11731633516422 49.7565504447054 H 0.0 **** 0.06
12505 H -0.29867477993613534 23.476800121213046 49.58470254348853 H 0.0 **** 0.06
12506 C 119.71475137575325 56.75424185984292 81.21786601224846 C 0.0 **** -0.24
12507 H 118.96110767335529 56.008268853706454 81.46979767589323 H 0.0 **** 0.06
12508 H 120.30312540644871 56.98871008333819 82.10465953456338 H 0.0 **** 0.06
12509 H 119.22392685304902 57.6585859786953 80.85637298977326 H 0.0 **** 0.06
12510 H 120.36890862686215 56.361045865117035 80.44028561319027 H 0.0 **** 0.06
12511 C 74.43148411667255 75.81358122184395 57.69032824354423 C 0.0 **** -0.24
12512 H 74.78277143064867 75.23495806410176 56.83546589012994 H 0.0 **** 0.06
12513 H 74.77420168669659 76.8439478747398 57.595981267490004 H 0.0 **** 0.06
12514 H 74.82947388533029 75.38079296002735 58.60854043757564 H 0.0 **** 0.06
12515 H 73.34252547785803 75.79295156154689 57.7199183631418 H 0.0 **** 0.06
12516 C 84.75293124053175 95.88959811903476 83.6525471853646 C 0.0 **** -0.24
12517 H 83.72473802844797 96.12821404262371 83.9246506434684 H 0.0 **** 0.06
12518 H 85.02152255341497 94.91648473004005 84.06525076057628 H 0.0 **** 0.06
12519 H 85.42069918245704 96.65154738748771 84.05389165943274 H 0.0 **** 0.06
12520 H 84.84441809250029 95.86145234200325 82.5675780608886 H 0.0 **** 0.06
12521 C 88.85170851494561 71.5611234727858 44.67687138819386 C 0.0 **** -0.24
12522 H 88.46660499260321 70.8616105438183 43.93491514318765 H 0.0 **** 0.06
12523 H 89.05437448121995 72.52003923072269 44.20047221353407 H 0.0 **** 0.06
12524 H 89.77292822847855 71.16537915863597 45.10452639971662 H 0.0 **** 0.06
12525 H 88.1133227958874 71.69509363344099 45.46710276482287 H 0.0 **** 0.06
12526 C 120.77160279604021 103.44148025998581 102.09087049002426 C 0.0 **** -0.24
12527 H 120.82163936330443 104.39391257984036 102.61968067544672 H 0.0 **** 0.06
12528 H 119.78170235912884 103.321496264588 101.65118870956246 H 0.0 **** 0.06
12529 H 120.96041748706 102.62801726659092 102.78978248351098 H 0.0 **** 0.06
12530 H 121.52429012001622 103.42467025855129 101.30157115480614 H 0.0 **** 0.06
12531 C 100.90521739343004 60.09577231435978 59.59708947312794 C 0.0 **** -0.24
12532 H 101.01051202783296 60.043451912982704 58.51381863901997 H 0.0 **** 0.06
12533 H 99.92904027136817 59.704331726535315 59.88569421346949 H 0.0 **** 0.06
12534 H 100.9923995730851 61.13270746230219 59.9212374096673 H 0.0 **** 0.06
12535 H 101.68876954041733 59.50097808995645 60.06607344852904 H 0.0 **** 0.06
12536 C 58.03932531565505 72.22458466808976 56.91315643333868 C 0.0 **** -0.24
12537 H 57.542136834062035 72.18414895123311 55.94400025640575 H 0.0 **** 0.06
12538 H 58.052422162505025 73.2542110945692 57.27154317874122 H 0.0 **** 0.06
12539 H 59.06176720524195 71.86130089493105 56.81235673367558 H 0.0 **** 0.06
12540 H 57.49924969940298 71.59856839645187 57.62483205780868 H 0.0 **** 0.06
12541 C 94.28825912955301 22.199223828830696 72.92301614292444 C 0.0 **** -0.24
12542 H 95.36605277877885 22.2606284119845 73.07746199293001 H 0.0 **** 0.06
12543 H 93.87687056554239 21.409545108436134 73.55153351259727 H 0.0 **** 0.06
12544 H 94.0835540037653 21.97550305280612 71.87659324028635 H 0.0 **** 0.06
12545 H 93.82942117746546 23.151868183596406 73.18802106114481 H 0.0 **** 0.06
12546 C 114.07967609415908 30.082404791403874 95.7451675262472 C 0.0 **** -0.24
12547 H 114.18694004920698 29.03082018228981 95.47927397762976 H 0.0 **** 0.06
12548 H 114.29306321030774 30.700326899391506 94.87280845381508 H 0.0 **** 0.06
12549 H 114.77722010025391 30.327982392601456 96.54548689415998 H 0.0 **** 0.06
12550 H 113.05947171649757 30.269252527758 96.08124804106589 H 0.0 **** 0.06
12551 C 65.51031559788152 18.551936961370018 17.654862537241314 C 0.0 **** -0.24
12552 H 65.2124939842135 17.571021676558644 17.28354776972472 H 0.0 **** 0.06
12553 H 64.9313504784327 19.323349877471912 17.146731989842806 H 0.0 **** 0.06
12554 H 66.5719273527713 18.705659032311388 17.461686119489116 H 0.0 **** 0.06
12555 H 65.32504437836576 18.604751624845562 18.72756440591604 H 0.0 **** 0.06
12556 C 17.681751205722662 90.68593957474013 63.470887866150015 C 0.0 **** -0.24
12557 H 18.52306339391413 90.16495721000041 63.92654918487127 H 0.0 **** 0.06
12558 H 17.947106928774446 91.72961748535445 63.30401109686897 H 0.0 **** 0.06
12559 H 16.81899915378729 90.63227162235196 64.13589226614732 H 0.0 **** 0.06
12560 H 17.43603126815198 90.21583587137684 62.518358925891185 H 0.0 **** 0.06
12561 C 31.990121868258143 120.61001072492468 14.72696482407595 C 0.0 **** -0.24
12562 H 32.68296854043629 120.8425155221505 15.536681582069122 H 0.0 **** 0.06
12563 H 30.983167388243544 120.50015593268296 15.131259030751082 H 0.0 **** 0.06
12564 H 32.2930523886524 119.6794363184568 14.246990341998611 H 0.0 **** 0.06
12565 H 32.0024202150303 121.4181611878443 13.996041657160362 H 0.0 **** 0.06
12566 C 25.50580356858785 7.7406001492275 113.85752986776545 C 0.0 **** -0.24
12567 H 24.745093265698415 8.264233307397948 114.43571775084169 H 0.0 **** 0.06
12568 H 26.301302901060637 7.40578935017869 114.52356867558761 H 0.0 **** 0.06
12569 H 25.91899898017607 8.412718488231683 113.10613479074797 H 0.0 **** 0.06
12570 H 25.056610022037546 6.877781518227717 113.36480646948195 H 0.0 **** 0.06
12571 C 84.68674597994783 44.87250029481086 110.50532130824786 C 0.0 **** -0.24
12572 H 84.7006085614066 43.79439689016351 110.67001220488066 H 0.0 **** 0.06
12573 H 84.97808462558194 45.08566342202357 109.47628561076044 H 0.0 **** 0.06
12574 H 85.38614927568389 45.35328203450891 111.18895867855298 H 0.0 **** 0.06
12575 H 83.68159374665024 45.253914132096554 110.68561998706622 H 0.0 **** 0.06
12576 C 110.10176647880712 78.11778566608001 60.17517782785867 C 0.0 **** -0.24
12577 H 109.25863793817197 78.32937466053676 59.51733931700753 H 0.0 **** 0.06
12578 H 110.98422863244099 78.64897786083304 59.81790544778064 H 0.0 **** 0.06
12579 H 110.29913475847104 77.04518879694422 60.17890899893285 H 0.0 **** 0.06
12580 H 109.86396934337606 78.44629508973364 61.18686463860694 H 0.0 **** 0.06
12581 C 16.801999346888238 88.43615671642371 74.9830417670565 C 0.0 **** -0.24
12582 H 17.262443365580253 88.31748501205638 75.96372491989032 H 0.0 **** 0.06
12583 H 16.48019904826515 87.46348041732162 74.61186865874254 H 0.0 **** 0.06
12584 H 17.526370414319018 88.86733786122878 74.29189668979237 H 0.0 **** 0.06
12585 H 15.93975388582146 89.09842214520489 75.06461032712258 H 0.0 **** 0.06
12586 C 119.59303011062025 100.13542954129667 81.45118384452499 C 0.0 **** -0.24
12587 H 120.5143913193013 99.63529701726827 81.75166542281843 H 0.0 **** 0.06
12588 H 118.84748634088623 99.38928719896526 81.17833194179482 H 0.0 **** 0.06
12589 H 119.79343184479352 100.78013948063344 80.59556748398663 H 0.0 **** 0.06
12590 H 119.22052355244789 100.73677140221699 82.27957981062252 H 0.0 **** 0.06
12591 C 24.611007270935232 75.28986487609549 24.982901397449098 C 0.0 **** -0.24
12592 H 25.1017012189902 76.19793286293603 25.332960105352157 H 0.0 **** 0.06
12593 H 23.852816888597403 74.98554971013613 25.704769652853514 H 0.0 **** 0.06
12594 H 25.3499562441431 74.49572005884838 24.87487561872794 H 0.0 **** 0.06
12595 H 24.139554732010538 75.48025687246167 24.019000212862892 H 0.0 **** 0.06
12596 C 118.98332235457809 102.57276060169539 49.429132056053106 C 0.0 **** -0.24
12597 H 118.96134405706454 103.4538764943859 48.78721624238898 H 0.0 **** 0.06
12598 H 120.01618503834808 102.33562566369557 49.68467038956814 H 0.0 **** 0.06
12599 H 118.53623657440903 101.72922211448207 48.902008425715906 H 0.0 **** 0.06
12600 H 118.41876262929893 102.77258314073819 50.34031998624076 H 0.0 **** 0.06
12601 C 5.750187176415352 53.371625898232395 92.2685219434249 C 0.0 **** -0.24
12602 H 5.824435655250312 52.50695419184585 92.92875083302494 H 0.0 **** 0.06
12603 H 4.917273738359796 53.99961143776292 92.58477263074704 H 0.0 **** 0.06
12604 H 5.581952650848322 53.0335549498605 91.24506436425222 H 0.0 **** 0.06
12605 H 6.676413990640015 53.944388981164764 92.31474388494286 H 0.0 **** 0.06
12606 C 25.724795277811182 30.698676378872904 95.25566722728044 C 0.0 **** -0.24
12607 H 26.336942589020737 30.58015386855857 96.14993745192376 H 0.0 **** 0.06
12608 H 24.80262251528427 30.127726790066475 95.3691007155727 H 0.0 **** 0.06
12609 H 26.274151770183636 30.33289596624047 94.38811361473506 H 0.0 **** 0.06
12610 H 25.485813035042383 31.75265146951122 95.1160137619433 H 0.0 **** 0.06
12611 C 69.27830339590355 4.69496208590094 116.16216367977657 C 0.0 **** -0.24
12612 H 68.96335789886143 4.374275490457251 115.16897155813942 H 0.0 **** 0.06
12613 H 68.52028021484819 5.351909688305767 116.5897614870949 H 0.0 **** 0.06
12614 H 70.22404877337314 5.23006023074656 116.0876272035346 H 0.0 **** 0.06
12615 H 69.40474613412883 3.8213134856172672 116.80268109933706 H 0.0 **** 0.06
12616 C 61.596571702007616 32.93368389078688 113.87333689076942 C 0.0 **** -0.24
12617 H 62.120081437032475 32.15039369586003 114.42158424495034 H 0.0 **** 0.06
12618 H 60.59240288748014 32.59160447220242 113.62217596215268 H 0.0 **** 0.06
12619 H 62.142605429417166 33.16241547962761 112.95844010709285 H 0.0 **** 0.06
12620 H 61.53199733363203 33.8294052285368 114.49186790766834 H 0.0 **** 0.06
12621 C 6.0653065792627245 81.508722283515 121.60142196998892 C 0.0 **** -0.24
12622 H 5.037301159601782 81.45347104380926 121.24187177370348 H 0.0 **** 0.06
12623 H 6.427931517726009 82.53249786465688 121.50706167290886 H 0.0 **** 0.06
12624 H 6.693693563887706 80.84414834599147 121.00781734369123 H 0.0 **** 0.06
12625 H 6.101498698981274 81.2045682559907 122.64685944414006 H 0.0 **** 0.06
12626 C 49.93215489977274 3.4152760916926184 101.32220372443928 C 0.0 **** -0.24
12627 H 49.54296247202521 4.163996695917035 100.63323582698038 H 0.0 **** 0.06
12628 H 50.78602040481056 3.8269632837188965 101.86140549708867 H 0.0 **** 0.06
12629 H 50.245688132247125 2.5345389192268897 100.76215903946189 H 0.0 **** 0.06
12630 H 49.154295034193495 3.135832418243808 102.03292476806092 H 0.0 **** 0.06
12631 C 65.3675057474641 42.86375754331598 20.909407023695735 C 0.0 **** -0.24
12632 H 66.31124211533108 42.368359058170284 20.683227695259433 H 0.0 **** 0.06
12633 H 64.5402405779524 42.24945007036067 20.55251228644903 H 0.0 **** 0.06
12634 H 65.33914405717061 43.83410043743502 20.414806831556035 H 0.0 **** 0.06
12635 H 65.27939623940193 43.0031206072978 21.987081281518442 H 0.0 **** 0.06
12636 C 59.046671059201 109.53338001097302 122.02194371670603 C 0.0 **** -0.24
12637 H 59.210874076986954 109.4138241010786 123.09268358348632 H 0.0 **** 0.06
12638 H 58.72717957271152 108.58237817078668 121.59502820467075 H 0.0 **** 0.06
12639 H 59.974207188693185 109.85176558974621 121.54599677924736 H 0.0 **** 0.06
12640 H 58.27534720991741 110.28409176132766 121.85394835904563 H 0.0 **** 0.06
12641 C 62.97293774602747 121.55121251523474 34.90392671327654 C 0.0 **** -0.24
12642 H 62.64399819334676 120.54613755201072 34.63918110254178 H 0.0 **** 0.06
12643 H 64.05432420309893 121.55448301434306 35.0404468957739 H 0.0 **** 0.06
12644 H 62.4889596827897 121.85916929761437 35.83021550564901 H 0.0 **** 0.06
12645 H 62.70444882328411 122.24283805617713 34.10611227751822 H 0.0 **** 0.06
12646 C 30.996983937964558 64.3065395846929 3.8013711863807913 C 0.0 **** -0.24
12647 H 30.80664977557754 65.3348951954311 4.107620662809026 H 0.0 **** 0.06
12648 H 30.75506175987644 64.19081404920223 2.744418754620881 H 0.0 **** 0.06
12649 H 30.377169371241166 63.63156550877779 4.392028496966219 H 0.0 **** 0.06
12650 H 32.04817412696602 64.06853165704925 3.9624659227558823 H 0.0 **** 0.06
12651 C 92.93229423157598 59.698624102251095 83.09321349983705 C 0.0 **** -0.24
12652 H 93.19651845599515 60.581471096725615 82.51092930544911 H 0.0 **** 0.06
12653 H 91.9030147873053 59.78694709441685 83.44060088049125 H 0.0 **** 0.06
12654 H 93.60024920910232 59.61731345142106 83.9517273033641 H 0.0 **** 0.06
12655 H 93.03203685938672 58.809374252517905 82.4708797974746 H 0.0 **** 0.06
12656 C 88.95599600561025 19.833930356027178 120.82575323444075 C 0.0 **** -0.24
12657 H 88.73367923865257 20.815819455550944 121.24281455528768 H 0.0 **** 0.06
12658 H 88.09616053501296 19.475241369724284 120.25981214852402 H 0.0 **** 0.06
12659 H 89.1750379405562 19.137030355352863 121.6342055219261 H 0.0 **** 0.06
12660 H 89.82099030773225 19.906547313008804 120.16565337366998 H 0.0 **** 0.06
12661 C 26.424809164083484 108.24317393718718 68.76628592462188 C 0.0 **** -0.24
12662 H 26.637370122781675 107.17401479373467 68.7859766733134 H 0.0 **** 0.06
12663 H 27.284498920259125 108.79154958529244 69.15399704403922 H 0.0 **** 0.06
12664 H 25.551014963125965 108.45105845715506 69.38323228230118 H 0.0 **** 0.06
12665 H 26.22747501117604 108.5541451750006 67.73993154963571 H 0.0 **** 0.06
12666 C 28.89598303983508 8.800728639237434 50.46685936547388 C 0.0 **** -0.24
12667 H 29.767755028490633 8.588641677175389 51.08723823841899 H 0.0 **** 0.06
12668 H 28.114997965794117 8.069849417769433 50.675971758286636 H 0.0 **** 0.06
12669 H 29.176664501659978 8.742727207711908 49.415931301235304 H 0.0 **** 0.06
12670 H 28.527102835372297 9.801664361206747 50.69011300331866 H 0.0 **** 0.06
12671 C 56.20577044309896 52.747711284553134 22.372840447661083 C 0.0 **** -0.24
12672 H 56.565747763164914 53.76666118193765 22.23453462056603 H 0.0 **** 0.06
12673 H 55.18645455437102 52.6681792111429 21.994058272028617 H 0.0 **** 0.06
12674 H 56.221079690475655 52.49682251532255 23.433135473928054 H 0.0 **** 0.06
12675 H 56.85054543689322 52.05839349274994 21.827021468597465 H 0.0 **** 0.06
12676 C 84.1156685033342 93.15032633435334 6.806912652710082 C 0.0 **** -0.24
12677 H 84.6507109604589 92.87333673292756 5.898433444659872 H 0.0 **** 0.06
12678 H 83.04401100155812 93.02152350706581 6.650655700734944 H 0.0 **** 0.06
12679 H 84.32499346077799 94.1917355645316 7.048955916686111 H 0.0 **** 0.06
12680 H 84.44177668845006 92.5131123715343 7.6293766258378355 H 0.0 **** 0.06
12681 C 5.974425757337443 11.825108067192986 112.04270323054851 C 0.0 **** -0.24
12682 H 5.5912104922008545 12.327818359645107 112.93056895181934 H 0.0 **** 0.06
12683 H 5.959531134338942 12.515999319716855 111.19913307012757 H 0.0 **** 0.06
12684 H 5.3499388324416515 10.960672755099296 111.81576747750393 H 0.0 **** 0.06
12685 H 6.998018430463713 11.496933338814472 112.22550245989152 H 0.0 **** 0.06
12686 C 36.01242730938151 14.60332569018334 9.690321546498382 C 0.0 **** -0.24
12687 H 36.02331549452407 13.551633172393622 9.404752984559337 H 0.0 **** 0.06
12688 H 35.512453821532716 14.711859118626649 10.65330347275119 H 0.0 **** 0.06
12689 H 35.47869042872472 15.179328878682213 8.935400814012127 H 0.0 **** 0.06
12690 H 37.036748157705404 14.968586793363102 9.769607747461322 H 0.0 **** 0.06
12691 C 34.839953331549175 78.21756066595174 19.55980941683805 C 0.0 **** -0.24
12692 H 35.405234048912746 77.73583558750559 18.761760038829152 H 0.0 **** 0.06
12693 H 34.87891540932998 77.59849111319116 20.45642416509088 H 0.0 **** 0.06
12694 H 33.80346584713654 78.34029133449033 19.247004433751783 H 0.0 **** 0.06
12695 H 35.27357782728598 79.19433837122682 19.7733842750813 H 0.0 **** 0.06
12696 C 111.07335365014046 35.60791439619118 14.194923441626145 C 0.0 **** -0.24
12697 H 110.419546551098 36.479748895022 14.19192623109089 H 0.0 **** 0.06
12698 H 110.71502942601217 34.88847788552181 14.931723976924133 H 0.0 **** 0.06
12699 H 112.087260384626 35.916209823387874 14.450209945832569 H 0.0 **** 0.06
12700 H 111.07105534397965 35.148642290067016 13.207478829771475 H 0.0 **** 0.06
12701 C 30.229584171324262 23.21826432829755 61.30928519392859 C 0.0 **** -0.24
12702 H 30.92804863749079 22.38787233213239 61.417925484627574 H 0.0 **** 0.06
12703 H 29.211902463966737 22.86000967695864 61.46271480777881 H 0.0 **** 0.06
12704 H 30.320436097094728 23.638934536834398 60.30719253105883 H 0.0 **** 0.06
12705 H 30.46042170967293 23.986113131992994 62.047939643683435 H 0.0 **** 0.06
12706 C 80.89526281380006 46.179569024578235 88.4942296150036 C 0.0 **** -0.24
12707 H 81.92545723793472 45.99844291075475 88.80347870516152 H 0.0 **** 0.06
12708 H 80.84903196195893 47.097894876462 87.90849973568348 H 0.0 **** 0.06
12709 H 80.26346889798828 46.27938840822452 89.37644536548743 H 0.0 **** 0.06
12710 H 80.54662754038765 45.34324548561515 87.88833646209224 H 0.0 **** 0.06
12711 C 7.537561707217947 67.76310835121168 28.540220176212273 C 0.0 **** -0.24
12712 H 7.05869721104159 68.1291244426055 29.4479090506699 H 0.0 **** 0.06
12713 H 6.985313271241296 66.90351812870864 28.159587177393433 H 0.0 **** 0.06
12714 H 8.562939017448286 67.46742657101038 28.763535689979044 H 0.0 **** 0.06
12715 H 7.54305764814319 68.55309304569496 27.7882958556767 H 0.0 **** 0.06
12716 C 17.890838593570834 73.74062254951349 50.515794575180834 C 0.0 **** -0.24
12717 H 18.524271240931995 72.85491773955658 50.573891517409876 H 0.0 **** 0.06
12718 H 18.073491185347336 74.37450786087095 51.38419058948503 H 0.0 **** 0.06
12719 H 16.84433505183449 73.43665136873102 50.500695884572956 H 0.0 **** 0.06
12720 H 18.121892007296424 74.29366586401073 49.6054245753387 H 0.0 **** 0.06
12721 C 4.272119028800873 63.02094943514109 6.71088678235779 C 0.0 **** -0.24
12722 H 4.552023551730301 62.539198728397764 7.647951276918548 H 0.0 **** 0.06
12723 H 5.161316565991854 63.43666706983376 6.236188185566078 H 0.0 **** 0.06
12724 H 3.560222717086191 63.821648974726685 6.912990850884498 H 0.0 **** 0.06
12725 H 3.8148745074348795 62.28750571588094 6.047126389623486 H 0.0 **** 0.06
12726 C 65.4243081747075 50.65425323043843 73.8558969803332 C 0.0 **** -0.24
12727 H 65.39065359221718 50.95831360749577 74.90235090471032 H 0.0 **** 0.06
12728 H 64.83760705110274 51.350020671541245 73.25649597918397 H 0.0 **** 0.06
12729 H 65.01146125900823 49.65074013256623 73.75660965369849 H 0.0 **** 0.06
12730 H 66.45775814311571 50.65754315085684 73.50979951972639 H 0.0 **** 0.06
12731 C 95.71374814812063 6.307408086469703 29.710230889050848 C 0.0 **** -0.24
12732 H 96.09347190232631 7.069018866822876 29.028241821460426 H 0.0 **** 0.06
12733 H 95.51191487442173 5.391382821099377 29.154527548985158 H 0.0 **** 0.06
12734 H 94.79380407540066 6.662698831305203 30.17472903662869 H 0.0 **** 0.06
12735 H 96.45689754455182 6.109105049761396 30.482339682913533 H 0.0 **** 0.06
12736 C 49.079409845672274 33.72857439300526 116.90325252905221 C 0.0 **** -0.24
12737 H 49.24211015713746 33.24523402451325 115.94019863861723 H 0.0 **** 0.06
12738 H 48.36291006064627 34.5412163904536 116.78430648964195 H 0.0 **** 0.06
12739 H 50.02372208984929 34.12730823066801 117.27418898287017 H 0.0 **** 0.06
12740 H 48.688897075056076 33.0005389263863 117.61431600507944 H 0.0 **** 0.06
12741 C 90.22482908457451 11.639130904932784 28.270029529823802 C 0.0 **** -0.24
12742 H 90.95010509951655 11.6208135284176 27.456940807718297 H 0.0 **** 0.06
12743 H 90.44657752992268 12.474706190195292 28.93493762452053 H 0.0 **** 0.06
12744 H 90.28126202477802 10.705351580229987 28.828010295026132 H 0.0 **** 0.06
12745 H 89.22180313202958 11.757519173261258 27.859076572357623 H 0.0 **** 0.06
12746 C 121.38183869043397 65.13134377521493 61.71321246589104 C 0.0 **** -0.24
12747 H 122.28831450126378 65.3271441400901 61.140698768033936 H 0.0 **** 0.06
12748 H 121.21860977726685 64.05515308045923 61.778074562495426 H 0.0 **** 0.06
12749 H 120.53172730828304 65.5995504119299 61.21852849624005 H 0.0 **** 0.06
12750 H 121.49041453111455 65.54339815564077 62.715781928191625 H 0.0 **** 0.06
12751 C 101.65818284137941 11.744857024540295 116.86074510570873 C 0.0 **** -0.24
12752 H 102.12364698838769 12.082110139947815 115.93463734122747 H 0.0 **** 0.06
12753 H 100.69871818914658 11.276721604997817 116.63570274243995 H 0.0 **** 0.06
12754 H 101.50100738387502 12.598971264200998 117.5191157050359 H 0.0 **** 0.06
12755 H 102.30895792307919 11.021088217903923 117.35139124665538 H 0.0 **** 0.06
12756 C 60.751754180103156 61.4779672093876 10.775341551526466 C 0.0 **** -0.24
12757 H 61.124276693894565 60.46041680439731 10.658135455522252 H 0.0 **** 0.06
12758 H 61.593804522623294 62.16836888682724 10.836185171427118 H 0.0 **** 0.06
12759 H 60.1597671284978 61.54484362448102 11.688292273924713 H 0.0 **** 0.06
12760 H 60.13008738968792 61.73848024463729 9.918441021815486 H 0.0 **** 0.06
12761 C 76.6651887480302 18.70595672034935 78.61155851532794 C 0.0 **** -0.24
12762 H 76.18623191715983 18.23318503737235 79.46942940360634 H 0.0 **** 0.06
12763 H 76.23681993513932 18.30788297736467 77.69144079952017 H 0.0 **** 0.06
12764 H 77.73521435411965 18.500306105226173 78.63349330729454 H 0.0 **** 0.06
12765 H 76.50162143383454 19.782779538718984 78.65224601461264 H 0.0 **** 0.06
12766 C 6.446713304570238 3.7857779497289528 19.905624475283958 C 0.0 **** -0.24
12767 H 6.052692260652577 4.159760176346381 20.85045505508714 H 0.0 **** 0.06
12768 H 5.64315806988148 3.3107836504569406 19.340658402465806 H 0.0 **** 0.06
12769 H 7.233427218340012 3.0576012993211634 20.102358050299244 H 0.0 **** 0.06
12770 H 6.855265223709267 4.6152979673976375 19.328283144646775 H 0.0 **** 0.06
12771 C 23.14802262051972 64.5437164875151 7.213384335373462 C 0.0 **** -0.24
12772 H 22.27721655380531 64.03792769241215 7.631265483663043 H 0.0 **** 0.06
12773 H 23.794163659030062 64.88371265018259 8.023982640121574 H 0.0 **** 0.06
12774 H 22.821743092807438 65.40112140370002 6.62500555321742 H 0.0 **** 0.06
12775 H 23.697589074554365 63.8527366814526 6.575207499504472 H 0.0 **** 0.06
12776 C 26.75420403068557 86.51461506358478 101.41550994891088 C 0.0 **** -0.24
12777 H 26.990060623048862 86.73589520093847 100.374797753351 H 0.0 **** 0.06
12778 H 26.862022089415518 87.42109195035445 102.01262982621245 H 0.0 **** 0.06
12779 H 27.435206296711044 85.75002883464197 101.78750439140657 H 0.0 **** 0.06
12780 H 25.72844194054835 86.15325253350537 101.4858616662491 H 0.0 **** 0.06
12781 C 68.05406274427807 121.608423412594 43.59188646944277 C 0.0 **** -0.24
12782 H 67.93800371513433 120.52870106739749 43.501741869806665 H 0.0 **** 0.06
12783 H 68.18702203710114 122.04318389946229 42.60082627008346 H 0.0 **** 0.06
12784 H 68.92783928573763 121.82959605735795 44.205681552572386 H 0.0 **** 0.06
12785 H 67.1645926317691 122.03214143138933 44.05856206302535 H 0.0 **** 0.06
12786 C 44.29748527547859 95.1585393922274 64.32979502443567 C 0.0 **** -0.24
12787 H 45.290556242131274 94.72173493549934 64.43151526915324 H 0.0 **** 0.06
12788 H 43.54819510070149 94.43727394101904 64.65594760874416 H 0.0 **** 0.06
12789 H 44.12090655924004 95.41921453390506 63.286603039969236 H 0.0 **** 0.06
12790 H 44.23122414323615 96.05657532809676 64.94427534831772 H 0.0 **** 0.06
12791 C 109.0423015567992 30.266509727742175 31.636989539261783 C 0.0 **** -0.24
12792 H 109.62725358094269 30.77581234760305 32.402857739746885 H 0.0 **** 0.06
12793 H 109.6269178460688 30.197742514336852 30.71923737707914 H 0.0 **** 0.06
12794 H 108.1274888397163 30.82747082527669 31.444904952360922 H 0.0 **** 0.06
12795 H 108.78761684203812 29.264040983922825 31.98198270332091 H 0.0 **** 0.06
12796 C 31.628362595071508 61.321711067244685 15.720325375997106 C 0.0 **** -0.24
12797 H 31.54404876104426 61.518479031915 16.78875255341302 H 0.0 **** 0.06
12798 H 30.859680485575367 60.60968153843945 15.420310575239341 H 0.0 **** 0.06
12799 H 32.612522889314334 60.906796649964015 15.504455907513545 H 0.0 **** 0.06
12800 H 31.497263072955235 62.25278421476704 15.168873797998685 H 0.0 **** 0.06
12801 C 118.18278407261427 26.7929273497885 34.18507924812322 C 0.0 **** -0.24
12802 H 119.2566425753316 26.746773392944817 34.361163766621964 H 0.0 **** 0.06
12803 H 117.65472093908225 26.693599840801028 35.133775478554824 H 0.0 **** 0.06
12804 H 117.88834764238125 25.981359763327475 33.51858659948091 H 0.0 **** 0.06
12805 H 117.93012911629461 27.749427906143808 33.72665113885046 H 0.0 **** 0.06
12806 C 114.54093000330334 108.55187248538465 40.120241973369744 C 0.0 **** -0.24
12807 H 115.239423499555 109.20552076484523 40.64411407077357 H 0.0 **** 0.06
12808 H 115.08761803448269 107.72368411593459 39.66949998407346 H 0.0 **** 0.06
12809 H 114.02892814531215 109.11720160923119 39.34144789454626 H 0.0 **** 0.06
12810 H 113.80954420500802 108.16282174435128 40.82784525349901 H 0.0 **** 0.06
12811 C 43.42020985024635 107.81255527928676 79.22880523746534 C 0.0 **** -0.24
12812 H 42.86543375531619 108.55920397509595 78.66040893943526 H 0.0 **** 0.06
12813 H 44.4420300071867 107.75515283241768 78.85249591501014 H 0.0 **** 0.06
12814 H 42.937265898659916 106.84151808263465 79.1195576727726 H 0.0 **** 0.06
12815 H 43.436322427985516 108.09604982083931 80.28101117745533 H 0.0 **** 0.06
12816 C 39.67911597660102 121.46605153186245 80.38483308469239 C 0.0 **** -0.24
12817 H 39.63857980623509 120.49545698929556 80.87792446716361 H 0.0 **** 0.06
12818 H 40.65426334579811 121.59345446684215 79.91307327439102 H 0.0 **** 0.06
12819 H 39.52563665922355 122.25444269089928 81.12121516495253 H 0.0 **** 0.06
12820 H 38.89790843469131 121.52006245378409 79.6259485204287 H 0.0 **** 0.06
12821 C 70.81687721734988 0.3488768609992121 12.13182180663668 C 0.0 **** -0.24
12822 H 70.62159533727177 -0.6429870594314337 12.537010612897802 H 0.0 **** 0.06
12823 H 70.86052711867151 0.2951359652678178 11.04408529274005 H 0.0 **** 0.06
12824 H 71.76805010953956 0.717419328806244 12.51539798476054 H 0.0 **** 0.06
12825 H 70.017164931624 1.0272999054993193 12.43044801186332 H 0.0 **** 0.06
12826 C 69.3126980238687 119.55442327995235 61.117395234891056 C 0.0 **** -0.24
12827 H 68.37389461271081 119.9744118750815 61.48062374689393 H 0.0 **** 0.06
12828 H 70.13669903330259 119.92999230093052 61.72498591695595 H 0.0 **** 0.06
12829 H 69.46373667111132 119.847096622359 60.07934097075654 H 0.0 **** 0.06
12830 H 69.27593158762028 118.46775515996869 61.18750729049919 H 0.0 **** 0.06
12831 C 67.90531505166135 103.31885176898237 69.24583488822833 C 0.0 **** -0.24
12832 H 68.21943092478563 102.93713735823536 68.27479142301061 H 0.0 **** 0.06
12833 H 67.55820807188448 102.49080971067235 69.86593356238669 H 0.0 **** 0.06
12834 H 67.09547480983878 104.03629665860302 69.11031814224623 H 0.0 **** 0.06
12835 H 68.74717389066191 103.80949775846832 69.73380651447675 H 0.0 **** 0.06
12836 C 41.82116303023568 68.1662582154328 64.524159707331 C 0.0 **** -0.24
12837 H 42.46321993724294 68.53733070487863 63.7245971220731 H 0.0 **** 0.06
12838 H 41.22250154624001 67.33548723635298 64.15227387981665 H 0.0 **** 0.06
12839 H 41.16275849962918 68.96613052774654 64.86209883408105 H 0.0 **** 0.06
12840 H 42.4379002277839 67.82725741137585 65.35638912367287 H 0.0 **** 0.06
12841 C 109.88150870010722 97.17742633296339 72.09747587598912 C 0.0 **** -0.24
12842 H 110.41884522108356 96.57850013491102 72.83357849637778 H 0.0 **** 0.06
12843 H 109.92852600516758 96.68699148428115 71.12562706438186 H 0.0 **** 0.06
12844 H 110.33846968200515 98.16443273744926 72.02968119192528 H 0.0 **** 0.06
12845 H 108.84118773058594 97.27990987085275 72.40417844123277 H 0.0 **** 0.06
12846 C 51.51043754348058 89.56914403380955 83.22666469127364 C 0.0 **** -0.24
12847 H 51.934206667905016 89.42979147807907 84.22140171466697 H 0.0 **** 0.06
12848 H 52.19244844743497 90.16568029922189 82.62157074311153 H 0.0 **** 0.06
12849 H 50.552511084642106 90.08353809903053 83.30982617276925 H 0.0 **** 0.06
12850 H 51.36066655965726 88.59723473652147 82.756143578511 H 0.0 **** 0.06
12851 C 53.1678266095509 115.8166843113518 4.17794605040072 C 0.0 **** -0.24
12852 H 53.257041496534214 116.18043949134717 5.20090397971407 H 0.0 **** 0.06
12853 H 52.58759611470481 116.52787824663811 3.588740675975515 H 0.0 **** 0.06
12854 H 52.66555630430676 114.84993273945138 4.1779439125753015 H 0.0 **** 0.06
12855 H 54.16147022275791 115.71056016735088 3.7429412810657823 H 0.0 **** 0.06
12856 C 76.13773049629702 66.00584106169293 58.10588166201336 C 0.0 **** -0.24
12857 H 77.18700479991261 66.14550409490766 58.36395092646242 H 0.0 **** 0.06
12858 H 76.06290853816589 65.4016969211005 57.2009978388127 H 0.0 **** 0.06
12859 H 75.67359131463311 66.97617469613522 57.93349979431372 H 0.0 **** 0.06
12860 H 75.62701482355769 65.49866599713789 58.924779772387666 H 0.0 **** 0.06
12861 C 39.668131154367885 60.829142005245394 67.54129640816035 C 0.0 **** -0.24
12862 H 39.41735859514342 59.76919105871628 67.58017097591173 H 0.0 **** 0.06
12863 H 39.85314366579686 61.195505002040285 68.55179912257705 H 0.0 **** 0.06
12864 H 38.83822442595211 61.382356995229166 67.10113490355394 H 0.0 **** 0.06
12865 H 40.562128377659626 60.96902936120967 66.93348671037009 H 0.0 **** 0.06
12866 C 100.76412412452325 6.82439530705912 27.718953291882656 C 0.0 **** -0.24
12867 H 101.4065034737477 6.54711776901577 26.884238989630035 H 0.0 **** 0.06
12868 H 100.95103728371404 6.156368852959446 28.560017072744586 H 0.0 **** 0.06
12869 H 99.72022341872426 6.744284105529914 27.415703162114085 H 0.0 **** 0.06
12870 H 100.9783582251602 7.851969312780881 28.01630100061226 H 0.0 **** 0.06
12871 C 37.443079466515115 34.06234792180024 105.99023237550284 C 0.0 **** -0.24
12872 H 38.50340779355014 33.81396442101541 106.02974913035735 H 0.0 **** 0.06
12873 H 36.962775785900135 33.75348482170509 106.91844790271398 H 0.0 **** 0.06
12874 H 36.97939913865295 33.54456878262738 105.15057682322316 H 0.0 **** 0.06
12875 H 37.32675490246322 35.138748895868844 105.86070355625282 H 0.0 **** 0.06
12876 C 76.15748112210142 110.18864031628158 63.78272919438362 C 0.0 **** -0.24
12877 H 76.63607017836401 109.54877127531816 63.041320226023515 H 0.0 **** 0.06
12878 H 76.47154842706448 109.88345183435297 64.78099712411156 H 0.0 **** 0.06
12879 H 75.07529487096352 110.09617335132688 63.69791269348852 H 0.0 **** 0.06
12880 H 76.44799341689409 111.22515539091566 63.6105599390288 H 0.0 **** 0.06
12881 C 94.83395292809288 69.91079274953498 64.76401525821342 C 0.0 **** -0.24
12882 H 93.98483473496131 69.63831107629011 65.39022857759133 H 0.0 **** 0.06
12883 H 95.65285937160829 69.21279286473242 64.94028939192685 H 0.0 **** 0.06
12884 H 95.15850138369655 70.92133069011246 65.01150764455676 H 0.0 **** 0.06
12885 H 94.5405295209911 69.86996714714806 63.71592604414343 H 0.0 **** 0.06
12886 C 49.14777210265302 92.91546881854694 76.42826555108252 C 0.0 **** -0.24
12887 H 48.49560446393686 92.35731499192161 77.10144376900868 H 0.0 **** 0.06
12888 H 49.99870274900428 92.29381914598457 76.14932494450105 H 0.0 **** 0.06
12889 H 49.50262058403953 93.81478524051482 76.93135763024827 H 0.0 **** 0.06
12890 H 48.59183161103019 93.194280010542 75.53311940796357 H 0.0 **** 0.06
12891 C 85.50948553278221 53.341303207616875 47.85160403326171 C 0.0 **** -0.24
12892 H 86.0087368842376 52.383232164741145 47.71092343949027 H 0.0 **** 0.06
12893 H 86.2275874070285 54.149642627165946 47.70871845711247 H 0.0 **** 0.06
12894 H 85.10043618291382 53.393016763282304 48.86010361631838 H 0.0 **** 0.06
12895 H 84.7012685061155 53.440299344958106 47.1264811667379 H 0.0 **** 0.06
12896 C 93.59579853533268 106.28259702983615 86.88219359658797 C 0.0 **** -0.24
12897 H 94.55212459383006 105.77022555788776 86.98006592964396 H 0.0 **** 0.06
12898 H 92.83946912462073 105.75647293424694 87.46574432988177 H 0.0 **** 0.06
12899 H 93.29806965305679 106.29941064458248 85.83341574293456 H 0.0 **** 0.06
12900 H 93.69154317564093 107.304397495194 87.24853068921715 H 0.0 **** 0.06
12901 C 56.82486839091098 52.63911826587869 108.95630156860787 C 0.0 **** -0.24
12902 H 57.54177564738845 52.536625206972616 108.1413394120352 H 0.0 **** 0.06
12903 H 57.27531827261751 53.2162714295562 109.76459379802202 H 0.0 **** 0.06
12904 H 56.54970567431181 51.651648818531726 109.32475999759308 H 0.0 **** 0.06
12905 H 55.93555000082645 53.15348711918571 108.59396810680548 H 0.0 **** 0.06
12906 C 2.8840078511478 64.46786012862026 115.148154966129 C 0.0 **** -0.24
12907 H 3.729612999414684 65.10419377698508 114.88613859416665 H 0.0 **** 0.06
12908 H 2.826036129450074 64.36877532877864 116.23228901437824 H 0.0 **** 0.06
12909 H 3.018033696312017 63.48318657846254 114.69929390443397 H 0.0 **** 0.06
12910 H 1.9638331221638339 64.91598177770203 114.77337826094993 H 0.0 **** 0.06
12911 C 63.139970729788615 83.801336859571 13.516369063668478 C 0.0 **** -0.24
12912 H 62.69738188333616 83.68163225212288 12.527725537020999 H 0.0 **** 0.06
12913 H 64.21472424512712 83.95823999290803 13.41606198394254 H 0.0 **** 0.06
12914 H 62.956366023332976 82.90405892829398 14.107350242321331 H 0.0 **** 0.06
12915 H 62.69121636400928 84.66175836198474 14.012980077501837 H 0.0 **** 0.06
12916 C 112.63864815653756 8.939307870738133 5.056073976369312 C 0.0 **** -0.24
12917 H 112.12579159214414 8.231388304489371 5.708518041988171 H 0.0 **** 0.06
12918 H 113.46187220786095 9.402659992781224 5.599717326796046 H 0.0 **** 0.06
12919 H 111.93674362260762 9.70789851876458 4.732174946102095 H 0.0 **** 0.06
12920 H 113.02830660075307 8.412192722551225 4.184840321386291 H 0.0 **** 0.06
12921 C 27.4459793265967 68.3970722351547 32.05594788288115 C 0.0 **** -0.24
12922 H 28.061834254092645 68.66335767597184 31.196688362006988 H 0.0 **** 0.06
12923 H 26.834919635435284 69.25353911841367 32.343208628100115 H 0.0 **** 0.06
12924 H 28.089385033854768 68.11298184120449 32.888450046707476 H 0.0 **** 0.06
12925 H 26.799716191468974 67.5601692400258 31.793977679455303 H 0.0 **** 0.06
12926 C 99.47847696593874 70.328837910375 4.393971841978621 C 0.0 **** -0.24
12927 H 98.50677584689811 70.1351300490812 4.847202771535546 H 0.0 **** 0.06
12928 H 99.59403669405634 69.71111288894318 3.5037595987167443 H 0.0 **** 0.06
12929 H 100.26644022345457 70.0894991713001 5.10817280125822 H 0.0 **** 0.06
12930 H 99.54661115278444 71.38086116551787 4.117409154547069 H 0.0 **** 0.06
12931 C 74.39964537137294 33.66782852073169 79.59898131879598 C 0.0 **** -0.24
12932 H 73.96113947172725 33.14425701650461 78.7499450774499 H 0.0 **** 0.06
12933 H 75.31427741317478 34.17111147499341 79.2834964600844 H 0.0 **** 0.06
12934 H 74.63223868198338 32.95168754578506 80.38706607390537 H 0.0 **** 0.06
12935 H 73.69032993065946 34.404718465781116 79.97661471135814 H 0.0 **** 0.06
12936 C 79.45296372007951 86.29325360667423 102.16530712589375 C 0.0 **** -0.24
12937 H 78.44670493369068 86.7034607531173 102.07949054311305 H 0.0 **** 0.06
12938 H 79.66423863624996 86.06579000440979 103.21070628969062 H 0.0 **** 0.06
12939 H 80.17460273040976 87.0227975422622 101.79856623617894 H 0.0 **** 0.06
12940 H 79.52525950168572 85.38123310728133 101.57337552665538 H 0.0 **** 0.06
12941 C 78.19243089548226 119.16825863366637 65.55795354499855 C 0.0 **** -0.24
12942 H 79.02068565901436 119.6748670466303 66.05228342622937 H 0.0 **** 0.06
12943 H 78.00561281759997 119.63650332225274 64.59134448859518 H 0.0 **** 0.06
12944 H 77.29924775293338 119.24353164374084 66.17786398713835 H 0.0 **** 0.06
12945 H 78.4449821574133 118.11754361813072 65.4103966870822 H 0.0 **** 0.06
12946 C 45.59966087862918 107.45614815295104 11.121800497161551 C 0.0 **** -0.24
12947 H 46.57305559113024 107.57698631843104 10.646894217408125 H 0.0 **** 0.06
12948 H 44.82445601609112 107.4210048577931 10.356144232258451 H 0.0 **** 0.06
12949 H 45.41380709789823 108.29753272781178 11.789612983912711 H 0.0 **** 0.06
12950 H 45.58717927449209 106.52840213042876 11.693819425868629 H 0.0 **** 0.06
12951 C 40.95671218533613 17.28866929957303 63.29095661183235 C 0.0 **** -0.24
12952 H 40.48995629678831 17.02593409051167 64.24121414455587 H 0.0 **** 0.06
12953 H 41.86523895525623 17.861785890174104 63.479271986309776 H 0.0 **** 0.06
12954 H 40.26451218525543 17.88830316681853 62.70105286075253 H 0.0 **** 0.06
12955 H 41.20629202860336 16.378657425426923 62.7453336461948 H 0.0 **** 0.06
12956 C 109.5871256153747 60.59759813346435 111.88809107332006 C 0.0 **** -0.24
12957 H 108.85833073972648 60.42433311463626 112.6795311280939 H 0.0 **** 0.06
12958 H 109.68329920147647 59.69772098221413 111.27976144371206 H 0.0 **** 0.06
12959 H 110.55264106955312 60.842202687698666 112.33003745925114 H 0.0 **** 0.06
12960 H 109.2542314507426 61.42613574930851 111.2630342622231 H 0.0 **** 0.06
12961 C 102.11316486446364 0.795639973411653 89.70780078424104 C 0.0 **** -0.24
12962 H 102.27115862866106 1.866200524242231 89.8382201265899 H 0.0 **** 0.06
12963 H 102.471873840791 0.26498831998685546 90.59008466981422 H 0.0 **** 0.06
12964 H 102.66147841059535 0.45255248215448773 88.82943271962753 H 0.0 **** 0.06
12965 H 101.04948086892594 0.5990808342030505 89.57239026823962 H 0.0 **** 0.06
12966 C 25.486936968206663 72.903440955662 5.512497398733942 C 0.0 **** -0.24
12967 H 26.443584173431844 72.95631831323587 6.031826018164406 H 0.0 **** 0.06
12968 H 25.311254614442106 73.83667533619203 4.977949553402471 H 0.0 **** 0.06
12969 H 24.68889656892071 72.74311803667038 6.237717527316438 H 0.0 **** 0.06
12970 H 25.504532464885557 72.07481617321687 4.803325631823402 H 0.0 **** 0.06
12971 C 33.70542980791862 66.43874178361429 50.66828650605677 C 0.0 **** -0.24
12972 H 32.95654105680268 66.12836589766664 49.939738931452496 H 0.0 **** 0.06
12973 H 34.30501737849414 65.5771563886349 50.9627326054773 H 0.0 **** 0.06
12974 H 33.209480392252715 66.8535226262122 51.545816082122684 H 0.0 **** 0.06
12975 H 34.35126299761862 67.19654494466212 50.22433604811417 H 0.0 **** 0.06
12976 C 0.6431317404946526 80.47608034413526 68.52083429065706 C 0.0 **** -0.24
12977 H 1.5599443680063416 81.0415565992609 68.35224195662391 H 0.0 **** 0.06
12978 H 0.2570030678110413 80.69871437017798 69.51593675349434 H 0.0 **** 0.06
12979 H 0.8558490117175523 79.40958076722421 68.44344452984188 H 0.0 **** 0.06
12980 H -0.09830391239155745 80.75409988714324 67.77171918560657 H 0.0 **** 0.06
12981 C 93.27014943989946 76.3436980795469 1.4361690635907536 C 0.0 **** -0.24
12982 H 92.56586689922432 76.06724263388969 0.6512329869590161 H 0.0 **** 0.06
12983 H 93.63723353562239 77.35430368077806 1.2552775127619213 H 0.0 **** 0.06
12984 H 94.10698170555196 75.64562351438639 1.4348417773355067 H 0.0 **** 0.06
12985 H 92.76755514063535 76.30658420646401 2.4029263689599247 H 0.0 **** 0.06
12986 C 40.52823501067789 75.42376976559555 8.953716112678926 C 0.0 **** -0.24
12987 H 41.60205170269896 75.34647730242764 8.779420988316467 H 0.0 **** 0.06
12988 H 40.094820220322305 74.42524973093114 8.997527264943884 H 0.0 **** 0.06
12989 H 40.068935169263995 75.98550829742973 8.140491917238108 H 0.0 **** 0.06
12990 H 40.35048516484767 75.9395054617988 9.89737855851508 H 0.0 **** 0.06
12991 C 77.33283734232731 105.29634250535514 49.89748466612011 C 0.0 **** -0.24
12992 H 78.14501518574588 105.26944314571534 49.170352794665234 H 0.0 **** 0.06
12993 H 76.66218478941119 106.1225225166366 49.66186875403815 H 0.0 **** 0.06
12994 H 77.74585735524334 105.436199452323 50.8963483303547 H 0.0 **** 0.06
12995 H 76.781318069111 104.35747969024558 49.860039030733475 H 0.0 **** 0.06
12996 C 37.120003577971715 69.77673904604845 106.70184467439688 C 0.0 **** -0.24
12997 H 37.877755192872144 70.54293093402731 106.53588489687817 H 0.0 **** 0.06
12998 H 37.46788822799974 69.08312796742413 107.46691528216024 H 0.0 **** 0.06
12999 H 36.941126306991606 69.23532855390735 105.77348231652104 H 0.0 **** 0.06
13000 H 36.19401106707544 70.24913923031156 107.03191155606908 H 0.0 **** 0.06
13001 C 54.89182228680434 68.41193397518882 74.82668645885713 C 0.0 **** -0.24
13002 H 53.96615031343035 68.0466072081357 74.38361671392212 H 0.0 **** 0.06
13003 H 55.39713668589644 69.07142228167169 74.12088997383847 H 0.0 **** 0.06
13004 H 55.53948805496549 67.56702718985258 75.06227242400038 H 0.0 **** 0.06
13005 H 54.66479164381647 68.9617184841502 75.73996910853901 H 0.0 **** 0.06
13006 C 30.563504596410183 23.582711806903404 21.15630373405037 C 0.0 **** -0.24
13007 H 31.137802377499895 23.258152056708326 20.288452267153644 H 0.0 **** 0.06
13008 H 29.589400208653245 23.092935556561997 21.151104350656027 H 0.0 **** 0.06
13009 H 30.427322972473974 24.663496953217617 21.116931574812867 H 0.0 **** 0.06
13010 H 31.09930741734415 23.31677343105835 22.067082084247062 H 0.0 **** 0.06
13011 C 17.45786441884968 122.4623491295983 50.15088335908993 C 0.0 **** -0.24
13012 H 17.5602485593688 122.39702303150166 51.234576200977955 H 0.0 **** 0.06
13013 H 16.457739866419388 122.1407971639766 49.86063978876999 H 0.0 **** 0.06
13014 H 18.199760045452564 121.81966497960443 49.67618015681268 H 0.0 **** 0.06
13015 H 17.61508048194065 123.49372115401718 49.83305626554625 H 0.0 **** 0.06
13016 C 37.022160074054 110.2919901743551 120.30049964219806 C 0.0 **** -0.24
13017 H 37.385215717353105 109.68876189051446 121.1327942916944 H 0.0 **** 0.06
13018 H 37.130703959782295 109.7299131189202 119.3716035906685 H 0.0 **** 0.06
13019 H 37.601971668436306 111.21260008655014 120.23854802784328 H 0.0 **** 0.06
13020 H 35.97114032355097 110.53312590673633 120.45863298668064 H 0.0 **** 0.06
13021 C 95.35835436418466 39.36051631750499 36.480853606603546 C 0.0 **** -0.24
13022 H 95.99904837730017 40.21514138699129 36.69928283563661 H 0.0 **** 0.06
13023 H 95.79355465928867 38.77855192862518 35.668188051246574 H 0.0 **** 0.06
13024 H 94.37010422561235 39.71392191524899 36.18839126946733 H 0.0 **** 0.06
13025 H 95.27220106861117 38.735296649201445 37.369801934755344 H 0.0 **** 0.06
13026 C 18.507015477152883 101.70331951314645 90.32574742408886 C 0.0 **** -0.24
13027 H 19.59157466534558 101.61735725943407 90.37836770642298 H 0.0 **** 0.06
13028 H 18.10474348859016 100.87166921814588 89.74601365408708 H 0.0 **** 0.06
13029 H 18.239301424448726 102.64479852310689 89.8460145878343 H 0.0 **** 0.06
13030 H 18.09094614099284 101.67813134907274 91.33360111970384 H 0.0 **** 0.06
13031 C 20.25097836879408 102.15520441565724 87.45293988377404 C 0.0 **** -0.24
13032 H 20.985197976242432 101.70035285289543 86.78888289200694 H 0.0 **** 0.06
13033 H 19.341408305490546 101.55326931857036 87.45551943912932 H 0.0 **** 0.06
13034 H 20.019907898166593 103.16201975587751 87.10273347722489 H 0.0 **** 0.06
13035 H 20.657051896825692 102.20597502321499 88.46350992044705 H 0.0 **** 0.06
13036 C 9.758050548818062 40.16461059491394 2.6091354757931686 C 0.0 **** -0.24
13037 H 9.117327638859791 39.43931429275659 2.107344113739611 H 0.0 **** 0.06
13038 H 10.33331475992182 40.71674326270684 1.864721051197657 H 0.0 **** 0.06
13039 H 10.43842041656896 39.64407365593081 3.2824312625727856 H 0.0 **** 0.06
13040 H 9.141765520699437 40.859721793934966 3.1800149359936842 H 0.0 **** 0.06
13041 C 64.6638781282106 66.46050639452491 26.342960835119356 C 0.0 **** -0.24
13042 H 64.79747445418411 67.40703592092726 26.868727059782657 H 0.0 **** 0.06
13043 H 65.3112312939636 66.43803535469496 25.466032054321715 H 0.0 **** 0.06
13044 H 63.62392210490561 66.36324517848479 26.02991466816809 H 0.0 **** 0.06
13045 H 64.9226075692143 65.63689796786792 27.008038527617998 H 0.0 **** 0.06
13046 C 116.4482278035847 54.80722502137971 24.83789898474157 C 0.0 **** -0.24
13047 H 115.59857531940565 55.372465076175075 25.222408451145668 H 0.0 **** 0.06
13048 H 117.36040796603942 55.38879875661303 24.966687195321413 H 0.0 **** 0.06
13049 H 116.29591950699754 54.598244850777064 23.778631952518708 H 0.0 **** 0.06
13050 H 116.53602937012622 53.86802378363268 25.384330192982816 H 0.0 **** 0.06
13051 C 89.76029253712201 16.8236553554745 110.71110700065569 C 0.0 **** -0.24
13052 H 89.15587237715812 16.76922062720311 111.61641205777431 H 0.0 **** 0.06
13053 H 90.75241941127703 16.419385439158617 110.91287233295421 H 0.0 **** 0.06
13054 H 89.8486135901384 17.863663114918694 110.39521074790505 H 0.0 **** 0.06
13055 H 89.28434416533764 16.243674710360864 109.92042771898812 H 0.0 **** 0.06
13056 C 104.4106859457099 28.98190810936171 40.15596686420679 C 0.0 **** -0.24
13057 H 103.70629757842957 28.408328679707267 40.75829882178277 H 0.0 **** 0.06
13058 H 105.42957316018726 28.720072173627955 40.44159936527524 H 0.0 **** 0.06
13059 H 104.24700243324881 30.046991943996147 40.32383685249249 H 0.0 **** 0.06
13060 H 104.25728323762854 28.75340146617924 39.101110251788555 H 0.0 **** 0.06
13061 C 112.14986236117488 58.615509598552165 111.79497017135733 C 0.0 **** -0.24
13062 H 111.10962993308738 58.29363603306513 111.77247736842062 H 0.0 **** 0.06
13063 H 112.80120235946879 57.75082803392962 111.66413753223154 H 0.0 **** 0.06
13064 H 112.36281519941735 59.08826215235549 112.75412150474932 H 0.0 **** 0.06
13065 H 112.3270541184823 59.329691071725655 110.99121523441096 H 0.0 **** 0.06
13066 C 61.350880626503624 73.51425721900858 24.581342218643613 C 0.0 **** -0.24
13067 H 61.62730112351659 72.78527147443276 25.343502081347737 H 0.0 **** 0.06
13068 H 60.47326783637948 74.06949656094014 24.912649027546223 H 0.0 **** 0.06
13069 H 61.122939016104226 72.99673167970724 23.6487897309934 H 0.0 **** 0.06
13070 H 62.1791857038325 74.20363029063964 24.421734814188 H 0.0 **** 0.06
13071 C 117.91911106436393 54.411808212978286 29.335934748997772 C 0.0 **** -0.24
13072 H 117.64152120141725 54.684975893000626 30.353348796304374 H 0.0 **** 0.06
13073 H 118.10674023250581 55.314302081996175 28.755166999453735 H 0.0 **** 0.06
13074 H 117.10765789434211 53.84584240332882 28.87786203401032 H 0.0 **** 0.06
13075 H 118.82128573078788 53.800151825304766 29.358617101417963 H 0.0 **** 0.06
13076 C 115.54826776802737 64.93072735686175 108.59914534320558 C 0.0 **** -0.24
13077 H 116.62507274829022 64.917530395202 108.42857851962867 H 0.0 **** 0.06
13078 H 115.03466516661963 65.13879996711347 107.65974959796745 H 0.0 **** 0.06
13079 H 115.30619468485563 65.70645072226148 109.32568922901294 H 0.0 **** 0.06
13080 H 115.22897549313876 63.96127035125707 108.98141445872125 H 0.0 **** 0.06
13081 C 76.2455003820632 84.2123380026728 113.09348897426432 C 0.0 **** -0.24
13082 H 76.11160224106413 85.13293369470318 112.52489595344667 H 0.0 **** 0.06
13083 H 75.36488755170686 84.03760679095183 113.71271853676734 H 0.0 **** 0.06
13084 H 77.1256509029059 84.30455750944176 113.73036163803013 H 0.0 **** 0.06
13085 H 76.37891750723566 83.37741515366156 112.40632321562225 H 0.0 **** 0.06
13086 C 2.532347808250945 0.5436076598205535 108.73726435113565 C 0.0 **** -0.24
13087 H 2.877641396699696 1.2013962717313653 107.94021067718495 H 0.0 **** 0.06
13088 H 2.6858254140978026 1.0299976502749093 109.70122783622935 H 0.0 **** 0.06
13089 H 3.0946060223471594 -0.3896298349265823 108.7071047561526 H 0.0 **** 0.06
13090 H 1.4717880519629514 0.33338514663032726 108.60102707221552 H 0.0 **** 0.06
13091 C 53.072444625880735 43.263269047972045 39.69775600938277 C 0.0 **** -0.24
13092 H 53.53713853976262 42.92589385602844 38.771526204752064 H 0.0 **** 0.06
13093 H 53.30146114411377 44.317655451735135 39.857054333033716 H 0.0 **** 0.06
13094 H 53.45895354868162 42.67751797750408 40.53180736690348 H 0.0 **** 0.06
13095 H 51.99222527096481 43.13200890662037 39.63063613284194 H 0.0 **** 0.06
13096 C 28.11810753058262 86.86812645031469 46.796435406970716 C 0.0 **** -0.24
13097 H 27.79011298771934 87.80405923292662 46.3429636925475 H 0.0 **** 0.06
13098 H 27.309075994617842 86.13997032346043 46.75113987637468 H 0.0 **** 0.06
13099 H 28.390092776935376 87.04641946066542 47.83720714258118 H 0.0 **** 0.06
13100 H 28.983063612154297 86.48609647060121 46.255252316025974 H 0.0 **** 0.06
13101 C 51.33460738489359 31.226173373831557 49.46226533909598 C 0.0 **** -0.24
13102 H 51.745429669626134 30.71025776593143 48.59468177565171 H 0.0 **** 0.06
13103 H 50.519032394090644 30.637467717534662 49.883233581345706 H 0.0 **** 0.06
13104 H 50.958925300939995 32.20327346208836 49.15959970982979 H 0.0 **** 0.06
13105 H 52.11577980694477 31.353537989425604 50.213105633918616 H 0.0 **** 0.06
13106 C 100.45299399949306 81.24990063608189 13.357667924475631 C 0.0 **** -0.24
13107 H 99.56128973145866 81.194934659332 13.98159767401318 H 0.0 **** 0.06
13108 H 100.73871553068665 82.2933767896105 13.223336706127508 H 0.0 **** 0.06
13109 H 100.24448986108087 80.80218114843763 12.385982577470234 H 0.0 **** 0.06
13110 H 101.26748087474624 80.7091099469477 13.839754740291383 H 0.0 **** 0.06
13111 C 37.06370113647415 100.90544169135441 94.50218578737113 C 0.0 **** -0.24
13112 H 37.9741360786 101.06450041418108 95.08062999919466 H 0.0 **** 0.06
13113 H 36.31073700798197 101.63480842536885 94.80100567360836 H 0.0 **** 0.06
13114 H 36.688616346838074 99.89871415036697 94.68541015492963 H 0.0 **** 0.06
13115 H 37.28395238698843 101.0229482010466 93.44050890036155 H 0.0 **** 0.06
13116 C 90.63785850248229 12.633209423359972 111.83766708434754 C 0.0 **** -0.24
13117 H 91.14879841460592 13.568559660469745 112.06593768293726 H 0.0 **** 0.06
13118 H 91.3207142190767 11.965449495615957 111.31213792857253 H 0.0 **** 0.06
13119 H 89.77179658632829 12.837920477221473 111.20804633575304 H 0.0 **** 0.06
13120 H 90.31093817360826 12.162869119271647 112.76524848153034 H 0.0 **** 0.06
13121 C 115.05389525699348 113.4343797364098 9.771148442362374 C 0.0 **** -0.24
13122 H 114.24516949274442 113.56810951412507 9.05302165170815 H 0.0 **** 0.06
13123 H 115.82509844675548 114.18417287442043 9.592873222183869 H 0.0 **** 0.06
13124 H 115.480778844322 112.43801983738143 9.654184714247123 H 0.0 **** 0.06
13125 H 114.66411340641935 113.54607447300074 10.782388504470134 H 0.0 **** 0.06
13126 C 62.99129407290687 99.50385068525435 105.38929689343439 C 0.0 **** -0.24
13127 H 62.51066655106533 99.59443953594231 106.36341750993216 H 0.0 **** 0.06
13128 H 63.50151939333392 100.43663692717055 105.14844611682574 H 0.0 **** 0.06
13129 H 62.238136084020454 99.29454318270328 104.63014901517454 H 0.0 **** 0.06
13130 H 63.716211623422424 98.68902999938408 105.41594342834125 H 0.0 **** 0.06
13131 C 108.72934191555774 120.59808202529614 62.034719528414314 C 0.0 **** -0.24
13132 H 109.66910134181398 120.24366363220815 61.61164987362537 H 0.0 **** 0.06
13133 H 108.19416012411344 121.18782141129064 61.289370531005176 H 0.0 **** 0.06
13134 H 108.93571753389898 121.21795150934737 62.908221762219966 H 0.0 **** 0.06
13135 H 108.11920464950194 119.74556485421397 62.331421503593475 H 0.0 **** 0.06
13136 C 70.13933731022374 43.00881741057927 89.8657902854921 C 0.0 **** -0.24
13137 H 70.2088149407742 42.882402243944796 90.94604126281581 H 0.0 **** 0.06
13138 H 70.55154066182399 43.977867354695746 89.58637898878447 H 0.0 **** 0.06
13139 H 69.09355403145179 42.95667907363628 89.56078843401315 H 0.0 **** 0.06
13140 H 70.7014584415308 42.21758039804601 89.3706782768786 H 0.0 **** 0.06
13141 C 62.70371321747842 20.26855511193763 24.809548981455976 C 0.0 **** -0.24
13142 H 61.64921706580097 20.515538750250244 24.68620765940011 H 0.0 **** 0.06
13143 H 63.29909787553453 21.18010484869866 24.752082911480045 H 0.0 **** 0.06
13144 H 63.01062083707069 19.582818337535258 24.019500282757292 H 0.0 **** 0.06
13145 H 62.85500356365304 19.79609228849172 25.78063769910841 H 0.0 **** 0.06
13146 C 100.74091086729754 74.33838164638757 29.0819231944876 C 0.0 **** -0.24
13147 H 101.12825321944806 75.11743753945666 28.4241770202338 H 0.0 **** 0.06
13148 H 100.98613988161802 74.58254334204173 30.116532319236143 H 0.0 **** 0.06
13149 H 101.19190869021267 73.38271172571774 28.817017499039025 H 0.0 **** 0.06
13150 H 99.65843152746888 74.27412531616494 28.970955912591734 H 0.0 **** 0.06
13151 C 8.544416488735578 106.53297822601601 65.08854243713694 C 0.0 **** -0.24
13152 H 9.467478523766658 106.14025867279457 65.51585965416186 H 0.0 **** 0.06
13153 H 8.29075658912518 107.47394911393701 65.5772321132252 H 0.0 **** 0.06
13154 H 7.739331314960907 105.81531616214122 65.24217212776205 H 0.0 **** 0.06
13155 H 8.682085887052892 106.70329474795199 64.02096362270908 H 0.0 **** 0.06
13156 C 17.61940284746106 16.200666643047356 90.02529545158745 C 0.0 **** -0.24
13157 H 16.805237344423944 16.136592628409034 90.74734890959317 H 0.0 **** 0.06
13158 H 17.205972495668163 16.273575201269324 89.01875340782041 H 0.0 **** 0.06
13159 H 18.24133058089791 15.309460424067282 90.09978984524372 H 0.0 **** 0.06
13160 H 18.22228001178385 17.083450603661845 90.23549218956364 H 0.0 **** 0.06
13161 C 102.96682804733013 51.721020286442545 86.99903067731069 C 0.0 **** -0.24
13162 H 103.51648900106323 52.21759050740507 86.19989493317192 H 0.0 **** 0.06
13163 H 103.21382900748716 52.18518215425015 87.95342649253655 H 0.0 **** 0.06
13164 H 103.24044039528451 50.66573894024141 87.02699059846418 H 0.0 **** 0.06
13165 H 101.89676866064661 51.8141718891974 86.8157882931973 H 0.0 **** 0.06
13166 C 76.60001243657419 62.87413911092756 114.95493755800675 C 0.0 **** -0.24
13167 H 77.18158773730087 63.388197094006244 114.18955549689991 H 0.0 **** 0.06
13168 H 76.11141431304327 63.60877376972823 115.59501171103541 H 0.0 **** 0.06
13169 H 77.26285783876597 62.25073797969759 115.55562730446444 H 0.0 **** 0.06
13170 H 75.84676625661308 62.24774718376642 114.4784825232521 H 0.0 **** 0.06
13171 C 81.95419206617242 5.674621459283202 76.63849768981024 C 0.0 **** -0.24
13172 H 82.6014759647264 5.745290657193976 75.76498209927809 H 0.0 **** 0.06
13173 H 82.26640532352874 4.83168691784573 77.25481770145171 H 0.0 **** 0.06
13174 H 80.92288517474816 5.526477829573139 76.31485774916561 H 0.0 **** 0.06
13175 H 82.0236142313189 6.594577920834212 77.21902486718253 H 0.0 **** 0.06
13176 C 102.27060739334468 39.00571975750728 113.45447240292012 C 0.0 **** -0.24
13177 H 103.11625506000172 38.42830491327376 113.82803531495497 H 0.0 **** 0.06
13178 H 102.61679232482203 39.98820605636331 113.13019949950049 H 0.0 **** 0.06
13179 H 101.53281806427827 39.124753834047425 114.24808120806844 H 0.0 **** 0.06
13180 H 101.81648451327743 38.483978030568494 112.61221110437637 H 0.0 **** 0.06
13181 C 1.0593502211125472 85.71413966891785 86.0522876151 C 0.0 **** -0.24
13182 H 0.20230849609265888 85.8505630967457 86.7111405652098 H 0.0 **** 0.06
13183 H 1.1578031128925446 86.58117668456828 85.39855295150687 H 0.0 **** 0.06
13184 H 0.9132289690293582 84.81772164188507 85.4477906723559 H 0.0 **** 0.06
13185 H 1.9635899638057737 85.60443419054516 86.65036727943172 H 0.0 **** 0.06
13186 C 117.53542166337257 27.641253188742716 66.1314731899252 C 0.0 **** -0.24
13187 H 117.1916484949893 28.65257294951647 65.91697047280866 H 0.0 **** 0.06
13188 H 117.75247705613316 27.547957111943695 67.19567474085011 H 0.0 **** 0.06
13189 H 118.43808282273892 27.434727239358352 65.5568211483045 H 0.0 **** 0.06
13190 H 116.75909669859863 26.92754908139861 65.85543309558602 H 0.0 **** 0.06
13191 C 2.0946079435494482 44.869604113927295 0.11372043699927126 C 0.0 **** -0.24
13192 H 1.52524529408457 43.99272688106217 0.4224851351898913 H 0.0 **** 0.06
13193 H 3.160014091228959 44.63958766086826 0.13852627011014995 H 0.0 **** 0.06
13194 H 1.8856396212601396 45.696223825091494 0.7938118278204858 H 0.0 **** 0.06
13195 H 1.8059244928763292 45.15216720235665 -0.8988580129708552 H 0.0 **** 0.06
13196 C 78.80784419595267 70.34297805397904 22.3047264749178 C 0.0 **** -0.24
13197 H 78.62247773693414 71.28381250122908 22.823243556481685 H 0.0 **** 0.06
13198 H 78.61122950987226 70.47019413417195 21.239471131255442 H 0.0 **** 0.06
13199 H 78.14956966751575 69.57216271653817 22.706097271673144 H 0.0 **** 0.06
13200 H 79.84622747753363 70.04695079414208 22.44990597378674 H 0.0 **** 0.06
13201 C 78.20142581334585 75.49433233835214 47.51640640120473 C 0.0 **** -0.24
13202 H 77.5652871330148 75.03589214005058 46.75928270482126 H 0.0 **** 0.06
13203 H 78.53608099475554 76.47105347292745 47.1674696683919 H 0.0 **** 0.06
13204 H 79.06668640740241 74.85600700104646 47.69842854842278 H 0.0 **** 0.06
13205 H 77.63701487927693 75.61199632523585 48.441834763032716 H 0.0 **** 0.06
13206 C 9.7180278505447 40.53521773164288 6.384252857239151 C 0.0 **** -0.24
13207 H 9.672577338266706 41.15873688939745 5.491256636596852 H 0.0 **** 0.06
13208 H 9.708458231047672 41.17040738959095 7.271063860254593 H 0.0 **** 0.06
13209 H 10.634928251282247 39.94611271518248 6.369284332136651 H 0.0 **** 0.06
13210 H 8.857292753593356 39.86770077301469 6.405984537069429 H 0.0 **** 0.06
13211 C 8.43318610044625 99.12763632402113 10.189359349151772 C 0.0 **** -0.24
13212 H 7.522508466053921 98.54583927443144 10.047967863114565 H 0.0 **** 0.06
13213 H 8.383869804611436 99.65571552193526 11.14105327717084 H 0.0 **** 0.06
13214 H 8.532043611234883 99.84982896256156 9.378236560246364 H 0.0 **** 0.06
13215 H 9.294719825252827 98.45977450114927 10.187269898049635 H 0.0 **** 0.06
13216 C 111.31804090723432 5.069282020143476 13.640081398547295 C 0.0 **** -0.24
13217 H 110.86902804163361 4.341746704068683 14.317277838396592 H 0.0 **** 0.06
13218 H 112.30773717169077 5.343066499918294 14.007938143739011 H 0.0 **** 0.06
13219 H 110.68909549464533 5.957848969426323 13.592399803693468 H 0.0 **** 0.06
13220 H 111.40802910384676 4.632217794527477 12.64602150578662 H 0.0 **** 0.06
13221 C 0.9295526526086064 67.49728702954442 21.111237633378096 C 0.0 **** -0.24
13222 H 1.520402453437967 68.31454772500183 20.697589716915367 H 0.0 **** 0.06
13223 H 1.5284350846921626 66.94742402578694 21.837324160461883 H 0.0 **** 0.06
13224 H 0.6262138426953783 66.82550769616566 20.306651177370604 H 0.0 **** 0.06
13225 H 0.043586047040932385 67.90033079148998 21.601378431512245 H 0.0 **** 0.06
13226 C 17.53506744786877 67.80917017546068 39.91539636729196 C 0.0 **** -0.24
13227 H 17.58394068312508 68.88603868675045 40.07833430684559 H 0.0 **** 0.06
13228 H 17.806796555126283 67.58572276377919 38.883035114943404 H 0.0 **** 0.06
13229 H 16.522610345390632 67.4583765359003 40.109701394266274 H 0.0 **** 0.06
13230 H 18.22951925778591 67.30794282677624 40.589971034978866 H 0.0 **** 0.06
13231 C 35.377403009154136 6.902398509024117 64.94070181367499 C 0.0 **** -0.24
13232 H 36.38495877278703 6.497980789399442 65.02915933891686 H 0.0 **** 0.06
13233 H 35.372347289154916 7.708278417704019 64.20662064990677 H 0.0 **** 0.06
13234 H 35.05507629626818 7.288965140475831 65.9074654098076 H 0.0 **** 0.06
13235 H 34.69607883929686 6.11364875821571 64.61995674867362 H 0.0 **** 0.06
13236 C 81.63288225867302 1.1780112100428823 47.24629845685507 C 0.0 **** -0.24
13237 H 80.84516444890633 0.5672390293996159 47.68657800996925 H 0.0 **** 0.06
13238 H 82.39456053412675 1.3848333407588598 47.997565983900245 H 0.0 **** 0.06
13239 H 81.20856051473376 2.1169010308920093 46.889163822539615 H 0.0 **** 0.06
13240 H 82.08318180362471 0.6423392518592408 46.40977405241165 H 0.0 **** 0.06
13241 C 102.38841152855949 68.45303908992418 102.25862356524996 C 0.0 **** -0.24
13242 H 102.2363890292884 67.62723660270714 102.9534469430537 H 0.0 **** 0.06
13243 H 101.9204006927493 69.35372262712022 102.65724645930175 H 0.0 **** 0.06
13244 H 101.93912960878961 68.20509452573049 101.29698466340855 H 0.0 **** 0.06
13245 H 103.45623703189042 68.62542067225485 102.12737813500175 H 0.0 **** 0.06
13246 C 97.84336615626165 22.581270471373585 69.82054361029685 C 0.0 **** -0.24
13247 H 98.57415005553804 22.655572420751582 69.01497159936196 H 0.0 **** 0.06
13248 H 96.88789780317381 22.982215193679465 69.48065723800806 H 0.0 **** 0.06
13249 H 98.19161460905949 23.152040190859864 70.6802714538328 H 0.0 **** 0.06
13250 H 97.72034809727086 21.53581542297556 70.10261523988908 H 0.0 **** 0.06
13251 C 22.91561337058107 55.7217194518729 11.392931913272125 C 0.0 **** -0.24
13252 H 22.155146817301954 55.14308967199628 11.918868619504167 H 0.0 **** 0.06
13253 H 23.15954998653325 56.611938992345074 11.974125787789283 H 0.0 **** 0.06
13254 H 22.534793371354738 56.017388521244754 10.416124370847182 H 0.0 **** 0.06
13255 H 23.810864611562693 55.11306657908125 11.265872778709312 H 0.0 **** 0.06
13256 C 85.29050767996787 32.002465167341555 48.9943195477322 C 0.0 **** -0.24
13257 H 85.55705135782836 32.72553828820075 48.22278865621499 H 0.0 **** 0.06
13258 H 85.90478613301772 31.109114195853174 48.88354893025286 H 0.0 **** 0.06
13259 H 84.23858138931962 31.73482620136329 48.89212551152096 H 0.0 **** 0.06
13260 H 85.45969421050467 32.441165497986866 49.977507752902824 H 0.0 **** 0.06
13261 C 51.35275674743298 70.03267326456876 93.75425723129206 C 0.0 **** -0.24
13262 H 50.65017645642499 70.7212067628962 94.22342209505007 H 0.0 **** 0.06
13263 H 52.01591720299394 69.61827937771395 94.51442834102133 H 0.0 **** 0.06
13264 H 51.94270045246008 70.56679660099695 93.0102117017912 H 0.0 **** 0.06
13265 H 50.80319976984514 69.2249631355387 93.27090580496534 H 0.0 **** 0.06
13266 C 49.494072845896454 72.07799138688014 80.60474124194315 C 0.0 **** -0.24
13267 H 48.50236633628404 72.4871097094094 80.79493710577788 H 0.0 **** 0.06
13268 H 49.74535269435739 72.20798326207179 79.55141519602466 H 0.0 **** 0.06
13269 H 49.501827383770404 71.0160542202699 80.85118286341753 H 0.0 **** 0.06
13270 H 50.22719118792034 72.59994324161809 81.22041236686516 H 0.0 **** 0.06
13271 C 87.97246795228469 2.6632595436201143 9.673291052002572 C 0.0 **** -0.24
13272 H 88.24149707125085 2.617908219693021 8.617621235000037 H 0.0 **** 0.06
13273 H 87.68633170570934 1.6691814999326766 10.017561363755085 H 0.0 **** 0.06
13274 H 87.13615466668031 3.3495493516303156 9.805027524763034 H 0.0 **** 0.06
13275 H 88.82682206141757 3.015636921255208 10.250030414332848 H 0.0 **** 0.06
13276 C 59.235122464175845 67.13354786581277 55.436947989096694 C 0.0 **** -0.24
13277 H 58.394676205763915 67.81246162711636 55.29312061814869 H 0.0 **** 0.06
13278 H 59.303876378621084 66.85730339345244 56.489250718952064 H 0.0 **** 0.06
13279 H 60.15781610484345 67.62694282782766 55.12978997722547 H 0.0 **** 0.06
13280 H 59.08568691818843 66.23711878957866 54.83407642021868 H 0.0 **** 0.06
13281 C 65.36495551097175 15.505007325734113 115.41747326385337 C 0.0 **** -0.24
13282 H 65.10919571847836 14.549512918526332 115.87701714289659 H 0.0 **** 0.06
13283 H 65.95514715334639 15.328652442078408 114.51843217073161 H 0.0 **** 0.06
13284 H 65.94307389999668 16.103505304869486 116.1211815840056 H 0.0 **** 0.06
13285 H 64.45064117746199 16.037117295240066 115.15385149472064 H 0.0 **** 0.06
13286 C 103.93745926040842 52.8259009076776 11.43462529775966 C 0.0 **** -0.24
13287 H 102.97263461168168 52.37957340099655 11.195348802625734 H 0.0 **** 0.06
13288 H 104.39117333686858 52.284106170342916 12.265765625776925 H 0.0 **** 0.06
13289 H 103.79614196982334 53.869594902473885 11.716178884296301 H 0.0 **** 0.06
13290 H 104.58984245339127 52.768760623787095 10.564129918854956 H 0.0 **** 0.06
13291 C 64.70699807447721 68.67830107279204 45.981586204866176 C 0.0 **** -0.24
13292 H 65.3064326090684 69.52026845698009 45.63531854325578 H 0.0 **** 0.06
13293 H 64.47423906679555 68.02819386148104 45.138559542004145 H 0.0 **** 0.06
13294 H 63.781413920694 69.04934295365749 46.421817996615175 H 0.0 **** 0.06
13295 H 65.26621777250952 68.11820970246455 46.73058759206623 H 0.0 **** 0.06
13296 C 82.78447730836143 39.54197201426072 80.51297028065193 C 0.0 **** -0.24
13297 H 83.32950993196224 38.69846035427693 80.08878438947556 H 0.0 **** 0.06
13298 H 82.60226301544611 39.36043083158492 81.57224969930854 H 0.0 **** 0.06
13299 H 81.83241472813367 39.6564242975185 79.99429439721405 H 0.0 **** 0.06
13300 H 83.37469598210564 40.45100459500529 80.39578311529408 H 0.0 **** 0.06
13301 C 41.92783666126751 1.1949859734508834 17.10414519626003 C 0.0 **** -0.24
13302 H 42.904127200836 1.2165419871211185 17.589701908164347 H 0.0 **** 0.06
13303 H 41.23975930148691 0.5960730193864094 17.701460854660915 H 0.0 **** 0.06
13304 H 42.02502695257011 0.756237745849333 16.11135411043112 H 0.0 **** 0.06
13305 H 41.54349994077272 2.2115234988658443 17.017174494127595 H 0.0 **** 0.06
13306 C 49.31005557910112 18.350671025047234 107.0704434101348 C 0.0 **** -0.24
13307 H 50.18883020970668 18.77360731395703 107.5582048527894 H 0.0 **** 0.06
13308 H 49.5970121311164 17.929624783329416 106.10650815957698 H 0.0 **** 0.06
13309 H 48.56683286135984 19.1336958285724 106.91937292760514 H 0.0 **** 0.06
13310 H 48.88821716816091 17.566195540423166 107.69885307453285 H 0.0 **** 0.06
13311 C 6.991423134703041 115.89611608835853 38.78348826069494 C 0.0 **** -0.24
13312 H 5.9586392004387925 116.0518965010159 39.0945395632577 H 0.0 **** 0.06
13313 H 7.026624391700867 115.11397667459704 38.02370470090639 H 0.0 **** 0.06
13314 H 7.588657935372488 115.59475874738476 39.64271311216069 H 0.0 **** 0.06
13315 H 7.389232933751721 116.82205279411599 38.369475399206465 H 0.0 **** 0.06
13316 C 78.01286352155341 18.463710818507252 24.501885488976768 C 0.0 **** -0.24
13317 H 78.79183558676331 18.96380916533647 23.925728968601106 H 0.0 **** 0.06
13318 H 78.19361810728557 17.388703618107883 24.499157840864655 H 0.0 **** 0.06
13319 H 77.04078365223225 18.67014026154277 24.05279217463223 H 0.0 **** 0.06
13320 H 78.02554607085696 18.833353089800113 25.52711710273715 H 0.0 **** 0.06
13321 C 63.0064012510957 20.494618852392676 89.5796556068729 C 0.0 **** -0.24
13322 H 62.970562821740835 19.449830898583002 89.8858904621955 H 0.0 **** 0.06
13323 H 63.917030780678566 20.674064306476836 89.0072908886903 H 0.0 **** 0.06
13324 H 63.00020929984655 21.132403900478607 90.46386658342811 H 0.0 **** 0.06
13325 H 62.137802102116545 20.722176304032217 88.9615744931778 H 0.0 **** 0.06
13326 C 111.05450161582672 93.13167770752327 66.84941428925868 C 0.0 **** -0.24
13327 H 111.15468258646078 94.0364326831816 67.44821499477496 H 0.0 **** 0.06
13328 H 110.02712949694865 93.04330974625447 66.49365895204775 H 0.0 **** 0.06
13329 H 111.30333510350758 92.26344535693906 67.45998667195698 H 0.0 **** 0.06
13330 H 111.73171956754128 93.18216289338878 65.99715717528818 H 0.0 **** 0.06
13331 C 99.07244030641243 103.90971433145086 40.90354874568841 C 0.0 **** -0.24
13332 H 99.43221572364573 104.2096282338814 39.91899937465198 H 0.0 **** 0.06
13333 H 99.76585598934537 103.19016408074714 41.33998580818897 H 0.0 **** 0.06
13334 H 98.0880059228588 103.45324594119353 40.80660745515053 H 0.0 **** 0.06
13335 H 99.00532629274716 104.78653554254305 41.54771441641812 H 0.0 **** 0.06
13336 C 13.984923581028426 101.93863998838358 93.31387638879346 C 0.0 **** -0.24
13337 H 15.00547013160022 102.06890951738905 93.67230302450525 H 0.0 **** 0.06
13338 H 13.497593425176063 102.9114697450382 93.24325942273373 H 0.0 **** 0.06
13339 H 13.433493649125921 101.30596384828203 94.00874185087889 H 0.0 **** 0.06
13340 H 14.002425193685696 101.46878412929311 92.33078724595038 H 0.0 **** 0.06
13341 C 51.748132316496935 95.70793188164936 63.029544663409034 C 0.0 **** -0.24
13342 H 52.46176239908772 96.51219346657211 63.20605101009381 H 0.0 **** 0.06
13343 H 51.20739190245149 95.49243198655324 63.95063243399442 H 0.0 **** 0.06
13344 H 52.28141419849959 94.81354871646482 62.70377718939208 H 0.0 **** 0.06
13345 H 51.04238849489113 96.01164963526537 62.25543911856858 H 0.0 **** 0.06
13346 C 91.73046687781624 26.204844154395545 91.63233139329543 C 0.0 **** -0.24
13347 H 91.00807946756831 25.91655376860504 92.3953046270064 H 0.0 **** 0.06
13348 H 91.65805903216062 27.277919204030667 91.45128927344828 H 0.0 **** 0.06
13349 H 91.51823749044419 25.66567899195016 90.70894644685191 H 0.0 **** 0.06
13350 H 92.73669506354665 25.960188621064873 91.97258664841453 H 0.0 **** 0.06
13351 C 90.58877972751958 60.79880636234129 0.2341599134322081 C 0.0 **** -0.24
13352 H 90.00321145347286 61.506173250720714 0.8217831228069343 H 0.0 **** 0.06
13353 H 91.01007698036705 60.039952482284356 0.8931542350793933 H 0.0 **** 0.06
13354 H 91.39558275325626 61.32839988623736 -0.27282600821561687 H 0.0 **** 0.06
13355 H 89.94603538454513 60.32209175575213 -0.5056042355765982 H 0.0 **** 0.06
13356 C 39.581212054418785 69.12218500214689 81.40363042093472 C 0.0 **** -0.24
13357 H 38.775917574550014 69.67679750291981 81.8858108135864 H 0.0 **** 0.06
13358 H 39.53960105085128 69.28486868680577 80.3264411635256 H 0.0 **** 0.06
13359 H 39.466549169843745 68.05852855846655 81.61544069626592 H 0.0 **** 0.06
13360 H 40.54098034338209 69.46711730644506 81.78767812573193 H 0.0 **** 0.06
13361 C 61.06954219812396 102.90554066837751 63.945052210295216 C 0.0 **** -0.24
13362 H 60.27425837846645 102.47778455451441 64.55485827663287 H 0.0 **** 0.06
13363 H 62.01968168085319 102.81352425850051 64.47141623195441 H 0.0 **** 0.06
13364 H 60.857499919050134 103.95819933657916 63.75815404918666 H 0.0 **** 0.06
13365 H 61.1268110009614 102.37243617095075 62.99675271487973 H 0.0 **** 0.06
13366 C 34.02609412713083 28.67004426165363 88.66206953588846 C 0.0 **** -0.24
13367 H 33.835030791733146 29.219455813529294 89.5832941648577 H 0.0 **** 0.06
13368 H 34.57581408233352 27.757195122435235 88.89053731405701 H 0.0 **** 0.06
13369 H 34.61556948463611 29.28997222506689 87.98531009087682 H 0.0 **** 0.06
13370 H 33.078302247772484 28.414716315801968 88.1878983264703 H 0.0 **** 0.06
13371 C 76.12973580379435 94.53244853399079 19.254330052730822 C 0.0 **** -0.24
13372 H 75.21362729468439 94.31032576062202 19.80202506626584 H 0.0 **** 0.06
13373 H 76.89414122554803 94.87698000005568 19.95052149681197 H 0.0 **** 0.06
13374 H 75.93172623299529 95.31058036501867 18.51681108893267 H 0.0 **** 0.06
13375 H 76.47733584389812 93.63119188038667 18.747806734411142 H 0.0 **** 0.06
13376 C 24.633528163232185 37.522630874288836 61.26382465545478 C 0.0 **** -0.24
13377 H 24.486376505998173 36.47559051311342 60.994640463406 H 0.0 **** 0.06
13378 H 23.98081603748529 38.148471871591795 60.65441993709257 H 0.0 **** 0.06
13379 H 25.672814466530404 37.7997764897801 61.088549467912344 H 0.0 **** 0.06
13380 H 24.39303490303945 37.66270731750055 62.317877183691024 H 0.0 **** 0.06
13381 C 89.58864186575892 26.576941159220695 9.260625095034158 C 0.0 **** -0.24
13382 H 90.13708189650569 27.146012797630846 10.01164184778807 H 0.0 **** 0.06
13383 H 89.74170416762723 27.027995134542806 8.280485134833356 H 0.0 **** 0.06
13384 H 88.52665979057005 26.58538533483943 9.5041591706634 H 0.0 **** 0.06
13385 H 89.95147418226932 25.549277309084715 9.248590218847283 H 0.0 **** 0.06
13386 C 1.4550653458642273 42.1396725002092 87.04654770985798 C 0.0 **** -0.24
13387 H 1.471462233244381 42.79460264335074 86.1757493722165 H 0.0 **** 0.06
13388 H 1.3388336325844534 42.739116652491646 87.95009244552307 H 0.0 **** 0.06
13389 H 2.3899472077480937 41.581433414614764 87.09841455044449 H 0.0 **** 0.06
13390 H 0.6209992306058894 41.44353353842985 86.96173995617232 H 0.0 **** 0.06
13391 C 111.47827935656615 100.32718316728398 116.64290482472502 C 0.0 **** -0.24
13392 H 111.85406160181746 101.05960051799886 115.92777147273978 H 0.0 **** 0.06
13393 H 111.6840441283492 100.67038871228542 117.65652206554935 H 0.0 **** 0.06
13394 H 111.9727859185671 99.36974586424066 116.47536000584536 H 0.0 **** 0.06
13395 H 110.4028698751952 100.20848775323876 116.50908032215845 H 0.0 **** 0.06
13396 C 38.193828079924174 70.60509465975429 25.512108258286133 C 0.0 **** -0.24
13397 H 37.186052586069955 70.44208144482673 25.895463749915137 H 0.0 **** 0.06
13398 H 38.68920301005902 69.64513256028806 25.372937591343344 H 0.0 **** 0.06
13399 H 38.75931723864674 71.20643768795605 26.223951431647492 H 0.0 **** 0.06
13400 H 38.13817525675306 71.12812005569674 24.557298675501613 H 0.0 **** 0.06
13401 C 10.848396392506231 52.89205843009324 35.95218654496031 C 0.0 **** -0.24
13402 H 11.787894422625044 53.17904818778146 35.47926214138772 H 0.0 **** 0.06
13403 H 11.023130176306395 52.05528958873242 36.62835377995262 H 0.0 **** 0.06
13404 H 10.132279107177425 52.595712814546516 35.18561596860536 H 0.0 **** 0.06
13405 H 10.450467625070104 53.73678070892379 36.51378253120569 H 0.0 **** 0.06
13406 C 83.56522628367864 93.5537258598657 112.60152196024215 C 0.0 **** -0.24
13407 H 82.77245805139688 94.23885071824736 112.30245751280385 H 0.0 **** 0.06
13408 H 84.0246058780368 93.9106123349718 113.5241701320532 H 0.0 **** 0.06
13409 H 84.31929915324545 93.50589714389588 111.8152912661015 H 0.0 **** 0.06
13410 H 83.14565184399538 92.56165333144978 112.76360659580162 H 0.0 **** 0.06
13411 C 12.252950934167075 33.7572083882209 17.912556571468915 C 0.0 **** -0.24
13412 H 12.229284385037488 34.78597439510955 18.2727600667599 H 0.0 **** 0.06
13413 H 11.478554453093466 33.178940372078074 18.416980346054487 H 0.0 **** 0.06
13414 H 13.229388668738977 33.32135220160478 18.124400556628352 H 0.0 **** 0.06
13415 H 12.075512772501384 33.74429457081649 16.83754726158164 H 0.0 **** 0.06
13416 C 41.546693826215176 69.85571993774963 68.93010447433619 C 0.0 **** -0.24
13417 H 40.61174525040377 70.39147881171425 68.76888206221327 H 0.0 **** 0.06
13418 H 41.37288758674333 68.78421371825726 68.82946669886229 H 0.0 **** 0.06
13419 H 41.92161768579251 70.07091380207356 69.93090557863502 H 0.0 **** 0.06
13420 H 42.28091918097812 70.17509278156109 68.19049224842354 H 0.0 **** 0.06
13421 C 42.99285851571807 75.4193589744196 13.754833565137488 C 0.0 **** -0.24
13422 H 42.198235675545135 76.08778176236945 14.086610083284256 H 0.0 **** 0.06
13423 H 43.444235223852274 74.93404055733834 14.620916876002212 H 0.0 **** 0.06
13424 H 43.75173052471442 75.99210817901226 13.221885402637668 H 0.0 **** 0.06
13425 H 42.57602115490225 74.66240555936548 13.090490077046866 H 0.0 **** 0.06
13426 C 51.68827171791466 36.43776411567149 95.31984014097918 C 0.0 **** -0.24
13427 H 52.76488469377301 36.601300453787154 95.36871244853597 H 0.0 **** 0.06
13428 H 51.488669528629714 35.464221062296176 94.87068862021286 H 0.0 **** 0.06
13429 H 51.23042043223228 37.218609679253014 94.712912210116 H 0.0 **** 0.06
13430 H 51.271056623292736 36.46743639652596 96.32606835219462 H 0.0 **** 0.06
13431 C 49.71835512369387 30.204778977858766 32.547919537455755 C 0.0 **** -0.24
13432 H 50.26108025403997 30.77251322646142 33.30303497738913 H 0.0 **** 0.06
13433 H 50.172727324774485 30.37218364755479 31.571542207095206 H 0.0 **** 0.06
13434 H 48.677577870255334 30.53048793511043 32.52627222928038 H 0.0 **** 0.06
13435 H 49.76079751066718 29.143079545977294 32.79214918351778 H 0.0 **** 0.06
13436 C 101.50486465407295 2.351790557147277 121.16307003140241 C 0.0 **** -0.24
13437 H 101.90766534679983 3.109458581986255 121.8356991495919 H 0.0 **** 0.06
13438 H 100.45694937011936 2.57172934566721 120.95495296999769 H 0.0 **** 0.06
13439 H 101.58597651022711 1.3706515764956357 121.62957322129878 H 0.0 **** 0.06
13440 H 102.06976175213535 2.3587568956087672 120.2299553730201 H 0.0 **** 0.06
13441 C 91.924881096462 19.648550623444976 23.73439593122348 C 0.0 **** -0.24
13442 H 90.87735723446488 19.739042435851957 23.4464790410886 H 0.0 **** 0.06
13443 H 91.98901291842458 19.318721527603742 24.77167990783419 H 0.0 **** 0.06
13444 H 92.41545327435563 20.615663435330475 23.62840618468187 H 0.0 **** 0.06
13445 H 92.41624633524637 18.918451019438777 23.08980070596332 H 0.0 **** 0.06
13446 C 101.33590396378716 3.667050616025179 35.12714668601714 C 0.0 **** -0.24
13447 H 101.66971275834811 2.692633698338099 35.48426082394133 H 0.0 **** 0.06
13448 H 101.43576110115202 4.400439777584893 35.92748913418873 H 0.0 **** 0.06
13449 H 100.292569878742 3.6033827327667467 34.81922546478202 H 0.0 **** 0.06
13450 H 101.94832401723386 3.969665524820755 34.27729783630795 H 0.0 **** 0.06
13451 C 31.36528821334184 120.90015592747059 113.66805901758573 C 0.0 **** -0.24
13452 H 30.319764659804264 120.79125167649013 113.37778232963987 H 0.0 **** 0.06
13453 H 31.421096177669483 121.32486150705685 114.67024500718745 H 0.0 **** 0.06
13454 H 31.869887584372663 121.56092899164588 112.96342255660082 H 0.0 **** 0.06
13455 H 31.84789571782457 119.92300970066506 113.6596115251632 H 0.0 **** 0.06
13456 C 19.88732525156211 61.790336713701834 50.96520813668138 C 0.0 **** -0.24
13457 H 20.97651468070155 61.78105682607992 50.92116935212431 H 0.0 **** 0.06
13458 H 19.56288065826038 62.40774863834014 51.803830484327364 H 0.0 **** 0.06
13459 H 19.521390032819333 60.77325236186175 51.10044454321593 H 0.0 **** 0.06
13460 H 19.49029714031662 62.20020406616544 50.03638276312569 H 0.0 **** 0.06
13461 C 90.0198583621077 43.2126794479608 94.33854018116412 C 0.0 **** -0.24
13462 H 89.81552943621068 44.265361920081 94.14130562424606 H 0.0 **** 0.06
13463 H 89.85876591131697 42.63524445907106 93.42877145942089 H 0.0 **** 0.06
13464 H 89.3505895564407 42.85366358771956 95.12031636432536 H 0.0 **** 0.06
13465 H 91.05358228580394 43.09818713792733 94.66478777309186 H 0.0 **** 0.06
13466 C 103.41210359130415 31.161147150092035 71.92074243597568 C 0.0 **** -0.24
13467 H 104.01982218937749 32.06050469175082 71.81861861719315 H 0.0 **** 0.06
13468 H 103.49129729190514 30.56480884495633 71.01186669967632 H 0.0 **** 0.06
13469 H 102.37188556580315 31.442463938370963 72.08273754711254 H 0.0 **** 0.06
13470 H 103.7678978788808 30.57813117054107 72.77077889101088 H 0.0 **** 0.06
13471 C 107.59968157695474 61.21924603892376 118.75548901859389 C 0.0 **** -0.24
13472 H 107.257582759131 62.24660912783747 118.63150273276888 H 0.0 **** 0.06
13473 H 108.6042849163509 61.21947281024035 119.17960370091446 H 0.0 **** 0.06
13474 H 107.61558505981 60.72363780706769 117.78505733016202 H 0.0 **** 0.06
13475 H 106.92238737770859 60.68861947101141 119.42440539760028 H 0.0 **** 0.06
13476 C 62.1221179756765 94.47485438029756 114.12568413992162 C 0.0 **** -0.24
13477 H 62.89196334274794 93.81985815271528 114.53421101558479 H 0.0 **** 0.06
13478 H 61.278400419322026 94.51678035546024 114.81485396875266 H 0.0 **** 0.06
13479 H 61.787293448225 94.0871954753622 113.16408745728063 H 0.0 **** 0.06
13480 H 62.5315092000954 95.4761997852699 113.99185088491254 H 0.0 **** 0.06
13481 C 30.46023119132559 93.27247872834582 85.36242684068912 C 0.0 **** -0.24
13482 H 29.86745164508028 94.18305120907624 85.27173322271588 H 0.0 **** 0.06
13483 H 30.896348187067872 93.02604870547682 84.3941818526408 H 0.0 **** 0.06
13484 H 29.819830503179503 92.45416513304039 85.69181711922027 H 0.0 **** 0.06
13485 H 31.255115600321517 93.42750173932268 86.0912489817002 H 0.0 **** 0.06
13486 C 100.81164375231177 26.782194461515175 103.93206872273527 C 0.0 **** -0.24
13487 H 101.81984322555721 27.19595634866355 103.89947904976373 H 0.0 **** 0.06
13488 H 100.20152388274437 27.2520659500112 103.16005725283978 H 0.0 **** 0.06
13489 H 100.37204632586588 26.976051835095525 104.90979796794818 H 0.0 **** 0.06
13490 H 100.85422602181245 25.707946012645365 103.7583447097326 H 0.0 **** 0.06
13491 C 111.79772999218213 12.6943538047218 44.05999047050034 C 0.0 **** -0.24
13492 H 111.38081871203943 13.700571972974842 44.09382941766256 H 0.0 **** 0.06
13493 H 112.40224026305198 12.521027363083164 44.9505119067765 H 0.0 **** 0.06
13494 H 112.4200330021111 12.588561121969093 43.1714174592224 H 0.0 **** 0.06
13495 H 110.9862258013508 11.966100712162927 44.02388469466902 H 0.0 **** 0.06
13496 C 93.66401336532539 92.7985054188878 84.06576283770897 C 0.0 **** -0.24
13497 H 94.49622309543733 92.24616709317311 84.50326543361825 H 0.0 **** 0.06
13498 H 94.0244101979741 93.3954120856601 83.22823095310099 H 0.0 **** 0.06
13499 H 93.22846225281609 93.4545245196376 84.81959923237116 H 0.0 **** 0.06
13500 H 92.90759052387097 92.09659837092889 83.71457469082867 H 0.0 **** 0.06
13501 C 67.28293412165482 90.29340336916789 107.78638256951103 C 0.0 **** -0.24
13502 H 66.54157048133436 90.50830719069063 108.55564416326848 H 0.0 **** 0.06
13503 H 67.07388594401723 90.89573220738771 106.90201952932713 H 0.0 **** 0.06
13504 H 67.23922339723697 89.23664260294294 107.52471650340996 H 0.0 **** 0.06
13505 H 68.27730353510302 90.53428758635403 108.16283364917365 H 0.0 **** 0.06
13506 C 23.54614957189966 44.07515548573584 52.9313247905647 C 0.0 **** -0.24
13507 H 22.502347803482827 43.85006253570407 53.15180426818614 H 0.0 **** 0.06
13508 H 23.83149621555406 45.00041382211149 53.43136419214778 H 0.0 **** 0.06
13509 H 23.673319965310625 44.188857508418465 51.85449067989151 H 0.0 **** 0.06
13510 H 24.17596791390706 43.259702060633245 53.287061633227324 H 0.0 **** 0.06
13511 C 74.53859430317488 68.04695600035006 19.241972671054583 C 0.0 **** -0.24
13512 H 75.00589223824119 67.60333666432649 20.120750581284497 H 0.0 **** 0.06
13513 H 74.52482138825408 67.31767480476091 18.431045140685583 H 0.0 **** 0.06
13514 H 75.10821497847931 68.92353946782993 18.932172927509086 H 0.0 **** 0.06
13515 H 73.5177648654385 68.34277365656158 19.48330084563233 H 0.0 **** 0.06
13516 C 50.111295420587666 2.3085291506008616 11.549728879376431 C 0.0 **** -0.24
13517 H 49.70385641741085 2.419984761285235 12.554389128523923 H 0.0 **** 0.06
13518 H 49.730086806057216 1.3902061032161441 11.103134095537797 H 0.0 **** 0.06
13519 H 51.198770569671055 2.2637096481358867 11.601816287867138 H 0.0 **** 0.06
13520 H 49.81042341037403 3.1611217156480222 10.939591050781047 H 0.0 **** 0.06
13521 C 47.6384046975658 10.94852106372991 104.40421546424432 C 0.0 **** -0.24
13522 H 47.88978022056547 11.983763016047515 104.63592131999397 H 0.0 **** 0.06
13523 H 46.595465196042774 10.890331268832902 104.09217332923538 H 0.0 **** 0.06
13524 H 47.788472992376285 10.33078881752003 105.2899408940412 H 0.0 **** 0.06
13525 H 48.27933633462303 10.591537410341672 103.5983529378178 H 0.0 **** 0.06
13526 C 71.33694274653291 93.59319296006933 15.397623301218673 C 0.0 **** -0.24
13527 H 72.08342663393111 94.35378431495056 15.626932563947065 H 0.0 **** 0.06
13528 H 70.99517447797899 93.12932468848373 16.3227480449522 H 0.0 **** 0.06
13529 H 71.77729393938642 92.83453449816443 14.75062771179477 H 0.0 **** 0.06
13530 H 70.49118643635154 94.05700837219152 14.889189723820564 H 0.0 **** 0.06
13531 C 60.33084816471461 87.53701115677654 12.303606541459317 C 0.0 **** -0.24
13532 H 59.60553727822332 88.17868595782863 12.803901152233465 H 0.0 **** 0.06
13533 H 60.82415925770931 86.90280346102492 13.040296370069683 H 0.0 **** 0.06
13534 H 61.07332508780985 88.15426425714946 11.798505839837816 H 0.0 **** 0.06
13535 H 59.817395117221054 86.9126622955269 11.571803531417999 H 0.0 **** 0.06
13536 C 96.21748514825211 3.1038323613558987 67.80284963156427 C 0.0 **** -0.24
13537 H 95.66911458756451 2.26841283000104 68.23762663152249 H 0.0 **** 0.06
13538 H 97.15821029650559 3.238290144656986 68.33699609381912 H 0.0 **** 0.06
13539 H 95.61980998805811 4.011822075457161 67.88450270044177 H 0.0 **** 0.06
13540 H 96.42189143231147 2.8971404383044046 66.75249939051096 H 0.0 **** 0.06
13541 C 50.6309622723645 56.226348800801226 106.22316781756268 C 0.0 **** -0.24
13542 H 50.93978093085698 55.57109943816349 105.40795035901718 H 0.0 **** 0.06
13543 H 51.51430315938747 56.631566212686785 106.71740247048399 H 0.0 **** 0.06
13544 H 50.04007439435057 55.658510165540186 106.9413599153595 H 0.0 **** 0.06
13545 H 50.02988131287779 57.044142550373145 105.82351761150616 H 0.0 **** 0.06
13546 C 3.2139019627139955 81.90908918281198 58.072577969006375 C 0.0 **** -0.24
13547 H 3.0829611508028325 80.85063575855264 58.29626960594038 H 0.0 **** 0.06
13548 H 2.6517133569343994 82.5049006645514 58.79204708662235 H 0.0 **** 0.06
13549 H 2.84827062034776 82.11477072401456 57.06588535077043 H 0.0 **** 0.06
13550 H 4.271138132401884 82.16636794360912 58.13485504422448 H 0.0 **** 0.06
13551 C 2.8245404707386967 7.590572064527159 95.94808418514896 C 0.0 **** -0.24
13552 H 2.285444878403254 7.329615351008282 95.03740275735595 H 0.0 **** 0.06
13553 H 3.13779573856462 8.633439259143593 95.89738615675321 H 0.0 **** 0.06
13554 H 3.702672004438682 6.951234393023682 96.04661114802303 H 0.0 **** 0.06
13555 H 2.172365412915667 7.4478597416384 96.80953412499736 H 0.0 **** 0.06
13556 C 99.34797338305884 99.55053904557244 19.183611336266523 C 0.0 **** -0.24
13557 H 98.99357973197422 100.58034147037108 19.213614220223775 H 0.0 **** 0.06
13558 H 99.02800464985535 99.08377432079158 18.250552933287338 H 0.0 **** 0.06
13559 H 98.93251066685949 98.9982563742299 20.026851363544722 H 0.0 **** 0.06
13560 H 100.43644130165288 99.53819559679815 19.240850863883168 H 0.0 **** 0.06
13561 C 23.125407408324435 90.4694563125359 72.8246852099654 C 0.0 **** -0.24
13562 H 22.834982442743353 89.44845330901518 72.57471240975798 H 0.0 **** 0.06
13563 H 24.093558186884394 90.45913272461519 73.32638500023168 H 0.0 **** 0.06
13564 H 22.378262501097566 90.90809180555664 73.48556680404707 H 0.0 **** 0.06
13565 H 23.196157255247414 91.06066078795808 71.91193780209906 H 0.0 **** 0.06
13566 C 5.81166943988886 107.62689323794518 4.5812459939647 C 0.0 **** -0.24
13567 H 5.873066732215506 106.5399751894262 4.6422025398423585 H 0.0 **** 0.06
13568 H 5.120985567064281 107.90699367742712 3.7843559161638467 H 0.0 **** 0.06
13569 H 6.799555982910249 108.034263080481 4.3664877288499895 H 0.0 **** 0.06
13570 H 5.453121662162076 108.02411004856756 5.530199815768569 H 0.0 **** 0.06
13571 C 91.64943499525288 100.77083415309264 5.432298675317526 C 0.0 **** -0.24
13572 H 91.37453920748658 100.74168587657272 6.486155284791806 H 0.0 **** 0.06
13573 H 91.21674026985798 99.91148294311384 4.919714125113018 H 0.0 **** 0.06
13574 H 92.73517712042505 100.74171088761304 5.33875178508174 H 0.0 **** 0.06
13575 H 91.27035844169023 101.68953616186735 4.983166413342957 H 0.0 **** 0.06
13576 C 0.38160572257646663 19.056407536861684 3.2518203160321892 C 0.0 **** -0.24
13577 H -0.3409249464652362 19.812037935985558 2.945291036337725 H 0.0 **** 0.06
13578 H 0.3541168950239637 18.94704274526302 4.336301240488725 H 0.0 **** 0.06
13579 H 1.380920910352586 19.363125065185017 2.942985989155945 H 0.0 **** 0.06
13580 H 0.13252394417695257 18.10448074278858 2.7840589296943907 H 0.0 **** 0.06
13581 C 93.20439738127388 74.19378286861013 66.78981682381891 C 0.0 **** -0.24
13582 H 93.56448759056323 73.84442973384182 67.75763890129349 H 0.0 **** 0.06
13583 H 93.24204236043286 73.37518389741788 66.07072104588394 H 0.0 **** 0.06
13584 H 93.83496017197052 75.01202449382691 66.44170714228574 H 0.0 **** 0.06
13585 H 92.177031755065 74.54380213100737 66.88938842790469 H 0.0 **** 0.06
13586 C 41.53660718665617 73.34117343705034 24.567816261767916 C 0.0 **** -0.24
13587 H 41.69279220435811 72.52745477571358 25.275675909884853 H 0.0 **** 0.06
13588 H 41.55363695245899 74.29293817335403 25.099328287472304 H 0.0 **** 0.06
13589 H 40.57208776504933 73.21597539949772 24.076898954126534 H 0.0 **** 0.06
13590 H 42.328897422569014 73.3293360543071 23.81944725023658 H 0.0 **** 0.06
13591 C 117.94001647853268 112.55452874376874 92.63079488869676 C 0.0 **** -0.24
13592 H 118.8908445905484 112.1526247047647 92.97850034560682 H 0.0 **** 0.06
13593 H 118.10111152571065 113.13575407369252 91.72261833308042 H 0.0 **** 0.06
13594 H 117.51404410386257 113.19614833848235 93.40229859859232 H 0.0 **** 0.06
13595 H 117.25323792447135 111.73393392379982 92.42085550551346 H 0.0 **** 0.06
13596 C 79.0775234234114 27.70643337666513 14.408137188949361 C 0.0 **** -0.24
13597 H 79.57890678991694 28.031840810232758 13.496536475043285 H 0.0 **** 0.06
13598 H 78.03781892409276 27.46537276011008 14.184629884438369 H 0.0 **** 0.06
13599 H 79.11383937975279 28.506667867563763 15.147053298610878 H 0.0 **** 0.06
13600 H 79.5792421499126 26.823272624384245 14.802626086716131 H 0.0 **** 0.06
13601 C 119.69874776436285 28.525905296762218 6.156528507665115 C 0.0 **** -0.24
13602 H 118.95155852094307 29.06193938332538 6.742274063494932 H 0.0 **** 0.06
13603 H 120.68712402257394 28.93484962576337 6.367367459165564 H 0.0 **** 0.06
13604 H 119.47755956663043 28.63920281594882 5.094745271578688 H 0.0 **** 0.06
13605 H 119.67712640732165 27.46893009446883 6.420905203943676 H 0.0 **** 0.06
13606 C 120.6859167345655 108.90226569077154 97.85313459176709 C 0.0 **** -0.24
13607 H 121.71744703820212 109.23393348930566 97.969945597198 H 0.0 **** 0.06
13608 H 120.01052793789705 109.71656660728456 98.1168904615117 H 0.0 **** 0.06
13609 H 120.50223399214326 108.05062575065284 98.50765208873744 H 0.0 **** 0.06
13610 H 120.51427969125353 108.60841801438352 96.81700454771632 H 0.0 **** 0.06
13611 C 52.71865713860623 70.95522117997493 121.63790614756363 C 0.0 **** -0.24
13612 H 52.81393358275224 71.5992490301555 122.51164558822927 H 0.0 **** 0.06
13613 H 53.34992562084855 70.07516345751873 121.76390091197379 H 0.0 **** 0.06
13614 H 53.03160408232944 71.50213795182856 120.74798624398798 H 0.0 **** 0.06
13615 H 51.6797698402095 70.64498941491138 121.5266067673457 H 0.0 **** 0.06
13616 C 14.152897824212747 112.32548865048443 19.011287575440292 C 0.0 **** -0.24
13617 H 14.482251856432335 112.63276013468108 18.019028410567444 H 0.0 **** 0.06
13618 H 14.747115477634953 111.47445592871999 19.34511365935714 H 0.0 **** 0.06
13619 H 13.100712393068449 112.04196948831856 18.973845947185282 H 0.0 **** 0.06
13620 H 14.281040241316209 113.15451360428037 19.708479349181687 H 0.0 **** 0.06
13621 C 81.00915605618138 56.98201308774989 6.217385930226897 C 0.0 **** -0.24
13622 H 81.5940234330206 56.19143135348722 5.74755427209908 H 0.0 **** 0.06
13623 H 80.57537418429894 57.620447441091926 5.447545680013718 H 0.0 **** 0.06
13624 H 81.65497423815071 57.577344736794345 6.862718576546058 H 0.0 **** 0.06
13625 H 80.21175692218759 56.53793995924559 6.81344701746562 H 0.0 **** 0.06
13626 C 60.95753458429606 106.85384898333453 80.47977301615754 C 0.0 **** -0.24
13627 H 59.98160277787648 106.51835442842278 80.1287336323843 H 0.0 **** 0.06
13628 H 60.861116382589906 107.26132865849559 81.48653019542658 H 0.0 **** 0.06
13629 H 61.339046736976805 107.62466799227911 79.8100778111253 H 0.0 **** 0.06
13630 H 61.64725159865832 106.01022924848166 80.49403080757907 H 0.0 **** 0.06
13631 C 49.93840214210802 5.252585135850694 52.49852809541055 C 0.0 **** -0.24
13632 H 50.71680200431155 4.498190752969265 52.616404911572175 H 0.0 **** 0.06
13633 H 50.220360327534834 5.944394956370161 51.704208930690726 H 0.0 **** 0.06
13634 H 49.81848513071811 5.800225258208997 53.433334138742104 H 0.0 **** 0.06
13635 H 48.99845631518107 4.765147422910502 52.239880765196766 H 0.0 **** 0.06
13636 C 68.11989589183244 45.128006929308505 114.74258004061156 C 0.0 **** -0.24
13637 H 68.83000826860032 45.56038830761017 114.03745671634934 H 0.0 **** 0.06
13638 H 68.173171998334 44.04030745283266 114.68995240880756 H 0.0 **** 0.06
13639 H 67.11114077498789 45.4555910038716 114.48987081232178 H 0.0 **** 0.06
13640 H 68.36604890937713 45.455818320364614 115.75242730556567 H 0.0 **** 0.06
13641 C 49.570605125595364 98.86936326940193 26.400580422163628 C 0.0 **** -0.24
13642 H 49.67672775905436 99.7936464476816 26.967922193197154 H 0.0 **** 0.06
13643 H 49.29326885623192 99.10399413978385 25.37298513836967 H 0.0 **** 0.06
13644 H 48.79521866984504 98.25228215349838 26.854084387076057 H 0.0 **** 0.06
13645 H 50.51629799622248 98.32853626580749 26.40773637848841 H 0.0 **** 0.06
13646 C 5.37023025813744 66.28391501032695 18.59431756945436 C 0.0 **** -0.24
13647 H 5.9628460482620085 67.19766790072086 18.545477697117164 H 0.0 **** 0.06
13648 H 4.517592076475751 66.4391818184317 19.255491893571048 H 0.0 **** 0.06
13649 H 5.986873318750099 65.47151706591842 18.98069190086781 H 0.0 **** 0.06
13650 H 5.015056682400854 66.027708392537 17.596465378176205 H 0.0 **** 0.06
13651 C 58.631170108900506 117.90125219925119 113.23322509699092 C 0.0 **** -0.24
13652 H 59.01435329690273 118.8934097367466 113.47138719428324 H 0.0 **** 0.06
13653 H 59.45464742095347 117.26178306907542 112.91381856873546 H 0.0 **** 0.06
13654 H 57.897717093924086 117.97778142870266 112.43127870500591 H 0.0 **** 0.06
13655 H 58.159834722634855 117.47183741635384 114.11798331057781 H 0.0 **** 0.06
13656 C 38.36410588930884 103.91814271022625 113.60157673661679 C 0.0 **** -0.24
13657 H 37.63872503571435 104.56168782181027 113.10159717859985 H 0.0 **** 0.06
13658 H 39.36435478688976 104.3323131737466 113.47567563607902 H 0.0 **** 0.06
13659 H 38.325991603862 102.92051855837252 113.16267520899011 H 0.0 **** 0.06
13660 H 38.124726155 103.8579867054303 114.66247288303286 H 0.0 **** 0.06
13661 C 37.06436067243362 66.39293761853969 98.72467364538554 C 0.0 **** -0.24
13662 H 37.88864558863588 66.77344849576681 98.12138434219304 H 0.0 **** 0.06
13663 H 36.743192277690184 67.16244779566031 99.42773065667348 H 0.0 **** 0.06
13664 H 37.393295162573054 65.51232303502368 99.27588245582203 H 0.0 **** 0.06
13665 H 36.232467075040574 66.12503618764435 98.07453988574241 H 0.0 **** 0.06
13666 C 111.6105394302674 23.06705295349363 79.50973285221846 C 0.0 **** -0.24
13667 H 111.76007183807852 22.02018189085115 79.24709599190047 H 0.0 **** 0.06
13668 H 110.96499258108554 23.538945567762596 78.76730514871696 H 0.0 **** 0.06
13669 H 112.57380497559537 23.57714548683674 79.53182926314048 H 0.0 **** 0.06
13670 H 111.14248144205868 23.13201690925939 80.49154214413474 H 0.0 **** 0.06
13671 C 2.21183292665998 108.5002835487173 6.983931540020151 C 0.0 **** -0.24
13672 H 2.4154476357291372 108.73002226662081 8.030031117743107 H 0.0 **** 0.06
13673 H 2.5164542321750787 109.34225816154182 6.362143188798072 H 0.0 **** 0.06
13674 H 1.14547943219074 108.31892657719953 6.853107429547137 H 0.0 **** 0.06
13675 H 2.7710369792530543 107.61156894333115 6.691901934921049 H 0.0 **** 0.06
13676 C 71.60989200575057 72.82924734865108 25.3940951917931 C 0.0 **** -0.24
13677 H 71.9992542666339 73.77980386323162 25.027810412464248 H 0.0 **** 0.06
13678 H 70.52243843490675 72.82899844591662 25.317611106674633 H 0.0 **** 0.06
13679 H 71.90128699159163 72.69389508625261 26.434641556743003 H 0.0 **** 0.06
13680 H 72.01671863299964 72.0154638687076 24.793559024234867 H 0.0 **** 0.06
13681 C 110.8926550446217 24.868693544567662 69.1706709431077 C 0.0 **** -0.24
13682 H 110.67118076049283 24.590564172673965 68.14053440145264 H 0.0 **** 0.06
13683 H 109.96322003458624 24.950226216591545 69.73298316610536 H 0.0 **** 0.06
13684 H 111.4117871401994 25.827538011314488 69.18402527959717 H 0.0 **** 0.06
13685 H 111.52711260631803 24.106231271438162 69.62426337985292 H 0.0 **** 0.06
13686 C 101.3346519024085 46.595306155469274 8.383199810599422 C 0.0 **** -0.24
13687 H 101.27053201019987 47.26002160166666 9.245104204964075 H 0.0 **** 0.06
13688 H 100.64936467949838 45.758104062091554 8.518589056971223 H 0.0 **** 0.06
13689 H 102.35394691465513 46.22034961523554 8.28994527536101 H 0.0 **** 0.06
13690 H 101.06560341708337 47.14385087014868 7.480603704810001 H 0.0 **** 0.06
13691 C 19.996027942050432 26.35622742672294 45.519028722825766 C 0.0 **** -0.24
13692 H 20.676898237443453 25.704641118066917 44.97041765006125 H 0.0 **** 0.06
13693 H 19.145523785773122 26.60841242183608 44.88504719218406 H 0.0 **** 0.06
13694 H 20.519285957469805 27.267901223122152 45.80659617893724 H 0.0 **** 0.06
13695 H 19.6435836683722 25.842682784274103 46.41264327824203 H 0.0 **** 0.06
13696 C 94.97337517489467 8.261575730536808 65.8723731826417 C 0.0 **** -0.24
13697 H 95.05841943352291 8.933192141711345 66.72702049819713 H 0.0 **** 0.06
13698 H 93.94558150924661 8.267297347401293 65.50722162018309 H 0.0 **** 0.06
13699 H 95.24558846411526 7.251291113163081 66.17677424874884 H 0.0 **** 0.06
13700 H 95.64244857228977 8.59675692289462 65.08044298761044 H 0.0 **** 0.06
13701 C 86.85492560077478 44.08976094970133 34.43561921331832 C 0.0 **** -0.24
13702 H 86.02192674650703 43.56643339871792 34.90673215259946 H 0.0 **** 0.06
13703 H 87.3275591490025 44.7482823869656 35.16444579178659 H 0.0 **** 0.06
13704 H 86.48544677208221 44.679846995599945 33.5970406701189 H 0.0 **** 0.06
13705 H 87.5827401238005 43.362913547209274 34.07658726884347 H 0.0 **** 0.06
13706 C 116.13217157560555 113.70526314498203 97.2701179571877 C 0.0 **** -0.24
13707 H 115.48144166229149 112.83664629234599 97.17124707636341 H 0.0 **** 0.06
13708 H 116.62003996917996 113.68397048204635 98.24478928727646 H 0.0 **** 0.06
13709 H 115.53766962372262 114.61564762736693 97.18083879113905 H 0.0 **** 0.06
13710 H 116.88677841084844 113.68578068716236 96.4847868161452 H 0.0 **** 0.06
13711 C 13.883978303585252 52.58570290945693 96.78985898951427 C 0.0 **** -0.24
13712 H 13.308526911826263 51.78982901092718 96.31823254769319 H 0.0 **** 0.06
13713 H 14.68060194204648 52.90503231874868 96.11767846830926 H 0.0 **** 0.06
13714 H 14.317757306242825 52.2187432524662 97.71948227667903 H 0.0 **** 0.06
13715 H 13.228079665558283 53.42969720873771 97.0031140556494 H 0.0 **** 0.06
13716 C 23.528741255606747 118.00174461289032 22.14638469468491 C 0.0 **** -0.24
13717 H 23.073846787626394 117.44671007129787 22.966683297327933 H 0.0 **** 0.06
13718 H 23.677985344893216 119.03848017627786 22.447319368158333 H 0.0 **** 0.06
13719 H 22.873549797808323 117.96587160436198 21.275621553329955 H 0.0 **** 0.06
13720 H 24.491304049096357 117.55357478154421 21.89516978072149 H 0.0 **** 0.06
13721 C 62.14365850309898 12.245267053170153 115.28040180975093 C 0.0 **** -0.24
13722 H 62.946891946474416 11.71339010774659 115.79009786270099 H 0.0 **** 0.06
13723 H 61.20157016091955 12.063306404892955 115.79941540648399 H 0.0 **** 0.06
13724 H 62.0668472613003 11.89025722447957 114.25238467959454 H 0.0 **** 0.06
13725 H 62.357326813036515 13.314621069116868 115.28057665053826 H 0.0 **** 0.06
13726 C 56.79502407256871 53.20665121904651 36.95432114693898 C 0.0 **** -0.24
13727 H 56.10675561277179 52.375804689372096 37.11312846342517 H 0.0 **** 0.06
13728 H 56.5456270012678 53.71112456298679 36.02046467353222 H 0.0 **** 0.06
13729 H 57.814696432060146 52.827511835537926 36.9019223708834 H 0.0 **** 0.06
13730 H 56.710870488909336 53.911208569621174 37.78246141877756 H 0.0 **** 0.06
13731 C 31.27667946473087 120.22316203950464 51.11704720787546 C 0.0 **** -0.24
13732 H 32.14762529098987 119.7471293332043 50.66512970361019 H 0.0 **** 0.06
13733 H 31.27874685144981 121.28618128637953 50.876427330864516 H 0.0 **** 0.06
13734 H 31.314289843937573 120.09532712053894 52.19920979390652 H 0.0 **** 0.06
13735 H 30.3690032732854 119.76408514397977 50.726867254656554 H 0.0 **** 0.06
13736 C 25.980679790308642 74.70179893679 104.5705311203601 C 0.0 **** -0.24
13737 H 26.21359203977636 75.35239965553245 105.41309309497956 H 0.0 **** 0.06
13738 H 24.98343577595999 74.28070344783956 104.70141328556883 H 0.0 **** 0.06
13739 H 26.712960563892075 73.89462153286402 104.52152345201637 H 0.0 **** 0.06
13740 H 26.013791154394383 75.27810152297315 103.64609232873255 H 0.0 **** 0.06
13741 C 115.06417800268675 102.16311298347799 34.66547508941025 C 0.0 **** -0.24
13742 H 115.0955765814667 101.62181729852176 33.719933849657565 H 0.0 **** 0.06
13743 H 116.06306349817324 102.52872610761725 34.9062384844386 H 0.0 **** 0.06
13744 H 114.72151651293623 101.49475482918231 35.45502216010712 H 0.0 **** 0.06
13745 H 114.37917517482511 103.00577765981174 34.5789047359292 H 0.0 **** 0.06
13746 C 106.60684762562963 13.92026422790957 61.61146370524454 C 0.0 **** -0.24
13747 H 106.88759296133364 14.383998216780242 62.55720150371065 H 0.0 **** 0.06
13748 H 106.92701444898918 12.877170713308658 61.60962234557072 H 0.0 **** 0.06
13749 H 107.08793556417291 14.450697303527079 60.78991561963603 H 0.0 **** 0.06
13750 H 105.52441552030226 13.967177013419473 61.491296871063405 H 0.0 **** 0.06
13751 C 104.74000617927001 90.06566637621103 110.12074311073974 C 0.0 **** -0.24
13752 H 105.0671801684166 90.14802481627942 109.0847767315392 H 0.0 **** 0.06
13753 H 103.65247256840902 90.13719300699321 110.16518195713729 H 0.0 **** 0.06
13754 H 105.1821213724256 90.87133026963139 110.7067755073806 H 0.0 **** 0.06
13755 H 105.05784064118887 89.10521727822191 110.52638569962573 H 0.0 **** 0.06
13756 C 120.7556665832474 67.9124349462596 76.89600192732831 C 0.0 **** -0.24
13757 H 120.12104022241155 68.36747173823872 76.13546393607442 H 0.0 **** 0.06
13758 H 121.77835116153898 68.27333519433097 76.7791837493001 H 0.0 **** 0.06
13759 H 120.7385215822596 66.82800249300385 76.78334101465816 H 0.0 **** 0.06
13760 H 120.38705198129354 68.18111270063793 77.88519229470626 H 0.0 **** 0.06
13761 C 102.51367081602064 11.72053882968735 23.500958145857723 C 0.0 **** -0.24
13762 H 101.90108261864094 12.47598286160109 23.00846330634444 H 0.0 **** 0.06
13763 H 101.86649016756371 10.98880545257477 23.98612996011937 H 0.0 **** 0.06
13764 H 103.14723230247455 12.197986751173602 24.2489658310558 H 0.0 **** 0.06
13765 H 103.13819670658609 11.220107587706785 22.76155564258451 H 0.0 **** 0.06
13766 C 11.950827022874538 113.04003971250481 99.77162423844919 C 0.0 **** -0.24
13767 H 12.713795572649204 113.75760808487207 100.07342177391823 H 0.0 **** 0.06
13768 H 11.053350960335774 113.57387828130166 99.46010185588153 H 0.0 **** 0.06
13769 H 11.71427638487286 112.38714661068047 100.6117441811839 H 0.0 **** 0.06
13770 H 12.324880635659078 112.44147341210741 98.94107116783357 H 0.0 **** 0.06
13771 C 55.11003010652917 108.93914258061415 1.2974605143205906 C 0.0 **** -0.24
13772 H 54.056947470841855 109.10428063825069 1.0701666448834999 H 0.0 **** 0.06
13773 H 55.61373658863932 108.54506424092634 0.41521104217838456 H 0.0 **** 0.06
13774 H 55.196446821033284 108.2253753830135 2.1165451577500107 H 0.0 **** 0.06
13775 H 55.570628183245766 109.88395191479236 1.5880012612212226 H 0.0 **** 0.06
13776 C 8.008408269090907 21.21224309254478 73.1132054190852 C 0.0 **** -0.24
13777 H 8.07837157608381 20.49611780687519 73.93166300028702 H 0.0 **** 0.06
13778 H 8.31629526388329 20.73305703312974 72.18338312582614 H 0.0 **** 0.06
13779 H 8.659156261932196 22.061887490719755 73.31686814446533 H 0.0 **** 0.06
13780 H 6.978857342069347 21.558151742731297 73.01948113859476 H 0.0 **** 0.06
13781 C 45.681906545691305 10.08218485519538 59.585219681174095 C 0.0 **** -0.24
13782 H 45.36360967465873 10.731401922460122 60.40027819176251 H 0.0 **** 0.06
13783 H 46.01185200512856 9.125340360142587 59.990197153385424 H 0.0 **** 0.06
13784 H 46.50567171675483 10.552545975493842 59.04652997917543 H 0.0 **** 0.06
13785 H 44.84720319673234 9.919814378135214 58.902705709159505 H 0.0 **** 0.06
13786 C 6.452349280050939 118.78703961727842 100.74517997527423 C 0.0 **** -0.24
13787 H 6.033717719583137 117.80132162274623 100.54028286946996 H 0.0 **** 0.06
13788 H 7.5409853862062874 118.73302491006689 100.70861441514438 H 0.0 **** 0.06
13789 H 6.136818573413109 119.11659160629 101.7349733754657 H 0.0 **** 0.06
13790 H 6.09716049871345 119.4949830207475 99.99615379960213 H 0.0 **** 0.06
13791 C 74.8644305126258 64.64470124497356 5.649866115637639 C 0.0 **** -0.24
13792 H 74.78507745799925 65.67726380963734 5.31037568645359 H 0.0 **** 0.06
13793 H 75.47173440236219 64.07588951471729 4.9455250405038385 H 0.0 **** 0.06
13794 H 73.86915772230392 64.20461382509774 5.710613589001902 H 0.0 **** 0.06
13795 H 75.33182750200152 64.62204775015232 6.634943814157573 H 0.0 **** 0.06
13796 C 59.89873009348809 97.9698738750094 22.699896588629585 C 0.0 **** -0.24
13797 H 60.49761585790154 97.2896859666763 22.093751874344576 H 0.0 **** 0.06
13798 H 58.922378878433754 98.10692474340092 22.234210494460115 H 0.0 **** 0.06
13799 H 60.404896934316476 98.9321280052435 22.77313738190253 H 0.0 **** 0.06
13800 H 59.76943023483475 97.54879222240717 23.697601952049396 H 0.0 **** 0.06
13801 C 21.25271589945828 58.12290949248632 89.87154357163388 C 0.0 **** -0.24
13802 H 21.481763609894358 58.400442378553684 90.9003826099455 H 0.0 **** 0.06
13803 H 20.204809161164775 58.33778401040036 89.66263323553096 H 0.0 **** 0.06
13804 H 21.440141610171196 57.05802711143041 89.73261458475884 H 0.0 **** 0.06
13805 H 21.884138306833023 58.69563859559033 89.19151099465654 H 0.0 **** 0.06
13806 C 11.117642347788717 76.20665439843856 76.90011618584833 C 0.0 **** -0.24
13807 H 11.388456056166376 75.16502586169509 76.72668875757671 H 0.0 **** 0.06
13808 H 11.778087198373157 76.85444111142257 76.32207275691755 H 0.0 **** 0.06
13809 H 11.219442451458633 76.43586182401776 77.95997075968592 H 0.0 **** 0.06
13810 H 10.086003201420766 76.37032196789124 76.5892726487418 H 0.0 **** 0.06
13811 C 51.950917914434825 102.76600903150774 26.76623923584046 C 0.0 **** -0.24
13812 H 51.236456399436804 102.48000519455582 25.99425109833328 H 0.0 **** 0.06
13813 H 52.818288548676236 103.23514037927947 26.302622962427648 H 0.0 **** 0.06
13814 H 52.26697904714989 101.87842560316605 27.31502716373751 H 0.0 **** 0.06
13815 H 51.48048395554335 103.46955030555469 27.4532011709681 H 0.0 **** 0.06
13816 C 33.7370653904465 12.74890026276276 101.24833803002221 C 0.0 **** -0.24
13817 H 33.634153157832145 12.465031906295508 100.1996430718674 H 0.0 **** 0.06
13818 H 34.74574287259475 13.122194180804513 101.42484159203022 H 0.0 **** 0.06
13819 H 33.554963255172254 11.877832005125242 101.87874274159893 H 0.0 **** 0.06
13820 H 33.01376835550997 13.528065432671212 101.48535717179843 H 0.0 **** 0.06
13821 C 117.8511658678612 67.25993169109978 60.39423805006402 C 0.0 **** -0.24
13822 H 117.14418258682818 67.91504662199844 60.903825362435555 H 0.0 **** 0.06
13823 H 117.91238188037164 66.3095920936716 60.924096854772074 H 0.0 **** 0.06
13824 H 118.83372052289863 67.73121284381796 60.375568796315065 H 0.0 **** 0.06
13825 H 117.51200078458055 67.0857374289784 59.37252351075546 H 0.0 **** 0.06
13826 C 18.134652085931265 60.35477225607417 1.5738164029484523 C 0.0 **** -0.24
13827 H 17.493771456752796 61.14879641077778 1.9562333918805166 H 0.0 **** 0.06
13828 H 18.814493416066 60.02633210392344 2.361539132365408 H 0.0 **** 0.06
13829 H 18.71181263803078 60.72826874574281 0.7276005726685639 H 0.0 **** 0.06
13830 H 17.519374255577475 59.514599412404095 1.2516519706962157 H 0.0 **** 0.06
13831 C 51.35710880766405 52.1253315416736 46.28554333434212 C 0.0 **** -0.24
13832 H 52.37066245152528 51.73247002493845 46.360715956655724 H 0.0 **** 0.06
13833 H 50.64256532154147 51.3340552660365 46.513766095422 H 0.0 **** 0.06
13834 H 51.18358185472189 52.489712165297504 45.27299393356924 H 0.0 **** 0.06
13835 H 51.23107499957035 52.94433586975492 46.993237819629826 H 0.0 **** 0.06
13836 C 46.59425945756857 42.37033096591006 33.954598837584705 C 0.0 **** -0.24
13837 H 45.775171150123185 41.67563245970376 33.7698058870101 H 0.0 **** 0.06
13838 H 47.00336646170115 42.19346810516009 34.95005159826784 H 0.0 **** 0.06
13839 H 46.22456371626646 43.39376607461219 33.889194087974396 H 0.0 **** 0.06
13840 H 47.37465996566584 42.21781708169175 33.2083108542774 H 0.0 **** 0.06
13841 C 56.09013087318664 107.38472056334038 44.24934886167705 C 0.0 **** -0.24
13842 H 55.44288624965469 108.10997330648621 44.74187190808311 H 0.0 **** 0.06
13843 H 56.594143299717246 106.77731673729028 45.00177776303855 H 0.0 **** 0.06
13844 H 56.833103278237786 107.9095595817688 43.64851181255318 H 0.0 **** 0.06
13845 H 55.49117471534328 106.74145263173688 43.60501277197534 H 0.0 **** 0.06
13846 C 114.23167393256011 63.656966902036004 89.46784893181604 C 0.0 **** -0.24
13847 H 113.94543833214334 63.998658603844035 88.47338019624641 H 0.0 **** 0.06
13848 H 113.49681116574578 64.00158346092587 90.19521971517003 H 0.0 **** 0.06
13849 H 115.2118602207654 64.0613626241016 89.72193378316587 H 0.0 **** 0.06
13850 H 114.27275666052975 62.56819714442406 89.47936871892495 H 0.0 **** 0.06
13851 C 38.65900978741848 21.995621505414192 2.663480673683864 C 0.0 **** -0.24
13852 H 38.76536132271258 21.39784644035251 1.757974473466703 H 0.0 **** 0.06
13853 H 39.25208402369839 21.55180577188844 3.4625987058563226 H 0.0 **** 0.06
13854 H 37.610983661748264 22.022715928957382 2.959795023732795 H 0.0 **** 0.06
13855 H 39.009407325021186 23.0105228809484 2.471186664192075 H 0.0 **** 0.06
13856 C 99.01352765461726 32.84597001765914 37.58713304591703 C 0.0 **** -0.24
13857 H 98.92496179573575 32.51609984553741 36.552535139101295 H 0.0 **** 0.06
13858 H 100.03778100439692 32.69789194742438 37.92914193989759 H 0.0 **** 0.06
13859 H 98.33362156479032 32.26655227463378 38.212163403777595 H 0.0 **** 0.06
13860 H 98.75642773361517 33.90370105179343 37.65433343294015 H 0.0 **** 0.06
13861 C 95.66376383145698 115.09200874078725 31.983425066358905 C 0.0 **** -0.24
13862 H 95.91403179679338 115.78725049348625 31.181807322746465 H 0.0 **** 0.06
13863 H 96.39696531995389 114.28458901900882 32.005990659927306 H 0.0 **** 0.06
13864 H 94.67126517994808 114.6766363130159 31.807162952050305 H 0.0 **** 0.06
13865 H 95.67251297227662 115.61891138208503 32.93751373199024 H 0.0 **** 0.06
13866 C 114.04221202934411 10.245454792108177 0.15908503262056684 C 0.0 **** -0.24
13867 H 113.31121288927562 10.17983698839754 0.9651859632171522 H 0.0 **** 0.06
13868 H 114.16448273151266 9.26545262161548 -0.30136334604137005 H 0.0 **** 0.06
13869 H 114.99851040991504 10.580655872962126 0.5617981119332285 H 0.0 **** 0.06
13870 H 113.69350544644291 10.957781115933074 -0.5890159549410896 H 0.0 **** 0.06
13871 C 30.628795124914085 75.27408422674387 5.286229584945147 C 0.0 **** -0.24
13872 H 31.20709925195269 76.19214185533275 5.182896882021794 H 0.0 **** 0.06
13873 H 29.685155075156857 75.49475798302555 5.7861513118647565 H 0.0 **** 0.06
13874 H 31.19402093357894 74.55340445400623 5.8777256663176445 H 0.0 **** 0.06
13875 H 30.4289080766438 74.85813588367122 4.29890377498711 H 0.0 **** 0.06
13876 C 41.573375296397074 31.960497772686217 8.72580951788619 C 0.0 **** -0.24
13877 H 42.334023722875116 31.365151814477578 8.220682509537387 H 0.0 **** 0.06
13878 H 42.03060424938468 32.513309291540004 9.547201816004886 H 0.0 **** 0.06
13879 H 40.798728284018296 31.30071494739461 9.118130592822805 H 0.0 **** 0.06
13880 H 41.12998142764681 32.660705043029175 8.017945281670855 H 0.0 **** 0.06
13881 C 23.684041071568778 113.16522268824349 90.14258243272747 C 0.0 **** -0.24
13882 H 24.503783194514135 113.50076831303096 90.77708701304795 H 0.0 **** 0.06
13883 H 23.037015490929235 114.01116524192213 89.90837893318678 H 0.0 **** 0.06
13884 H 23.108739907617064 112.40168646309212 90.66646805971482 H 0.0 **** 0.06
13885 H 24.086697226217694 112.74817737351299 89.21947877658977 H 0.0 **** 0.06
13886 C 33.76665902254155 71.22057613720122 72.18144098668341 C 0.0 **** -0.24
13887 H 32.852603999284916 70.72779832982044 71.85016832825272 H 0.0 **** 0.06
13888 H 33.79191217975522 71.24585169933812 73.27109945731286 H 0.0 **** 0.06
13889 H 33.79129142669572 72.23916336832391 71.79377690076979 H 0.0 **** 0.06
13890 H 34.63086326532539 70.67017209879381 71.8099877164878 H 0.0 **** 0.06
13891 C 86.5184595179125 61.89589446928037 68.04161350398556 C 0.0 **** -0.24
13892 H 87.02347571782269 62.80594184899606 68.36532252264567 H 0.0 **** 0.06
13893 H 87.07279220025015 61.44547338680862 67.2192004890154 H 0.0 **** 0.06
13894 H 85.50909758318275 62.1394535211333 67.7105008592685 H 0.0 **** 0.06
13895 H 86.46758772654289 61.19334667668196 68.87422497488814 H 0.0 **** 0.06
13896 C 65.07923603283686 23.343591216531927 86.23848468234112 C 0.0 **** -0.24
13897 H 65.5496065354601 22.851155494980695 85.38743898736246 H 0.0 **** 0.06
13898 H 65.82209343310302 23.93819696596335 86.76939048143825 H 0.0 **** 0.06
13899 H 64.6673792459982 22.58979089708351 86.91129099073768 H 0.0 **** 0.06
13900 H 64.27735863763274 23.99180349191063 85.88557024825741 H 0.0 **** 0.06
13901 C 12.781898652518407 99.56640113136953 57.08477316747678 C 0.0 **** -0.24
13902 H 13.421296469389574 98.6865320413419 57.153394762964865 H 0.0 **** 0.06
13903 H 11.83481178595352 99.36656341273797 57.58606199429792 H 0.0 **** 0.06
13904 H 12.596151613116547 99.79841215178897 56.03588467249568 H 0.0 **** 0.06
13905 H 13.275646784175478 100.41261467254643 57.56244517899586 H 0.0 **** 0.06
13906 C 43.01780405028511 49.03563105322965 105.24273522467215 C 0.0 **** -0.24
13907 H 43.49982372824522 48.45285010713948 104.45714526473964 H 0.0 **** 0.06
13908 H 43.62303794065431 48.99563526166102 106.14807072735991 H 0.0 **** 0.06
13909 H 42.02966648442665 48.62116429840984 105.44670748718377 H 0.0 **** 0.06
13910 H 42.916325865115304 50.07126793708528 104.9166008762329 H 0.0 **** 0.06
13911 C 42.07094715416551 98.66142453829886 11.560544878090983 C 0.0 **** -0.24
13912 H 41.90330666981785 97.69355901292815 11.087582778758033 H 0.0 **** 0.06
13913 H 43.12533413159093 98.76479767421742 11.814247760007113 H 0.0 **** 0.06
13914 H 41.46952259022848 98.73069292689343 12.467640011883205 H 0.0 **** 0.06
13915 H 41.78265434578677 99.45624384059897 10.872811901474009 H 0.0 **** 0.06
13916 C 57.4183472599777 47.834398990858745 109.71406724367574 C 0.0 **** -0.24
13917 H 57.955428767497615 48.50509960003535 110.38386065241147 H 0.0 **** 0.06
13918 H 56.674507034862934 47.27335108930731 110.28091658214171 H 0.0 **** 0.06
13919 H 58.121229256598944 47.14206677630693 109.25191676114846 H 0.0 **** 0.06
13920 H 56.920033632349224 48.41703762443808 108.93912667030739 H 0.0 **** 0.06
13921 C 74.11370812642156 88.12522429562239 29.720399258399823 C 0.0 **** -0.24
13922 H 74.72542105490663 88.69548390255227 30.41968919772522 H 0.0 **** 0.06
13923 H 73.63536247642463 87.2987414156982 30.247375254402513 H 0.0 **** 0.06
13924 H 74.74404710366866 87.73206222868413 28.922998811666332 H 0.0 **** 0.06
13925 H 73.35029175333403 88.77554747127078 29.293542926477343 H 0.0 **** 0.06
13926 C 2.6040062665304333 112.8694270241786 20.314268651492938 C 0.0 **** -0.24
13927 H 1.7418466248018944 113.53566613509895 20.27354556094005 H 0.0 **** 0.06
13928 H 2.2800305890353343 111.8452086786398 20.12789884602934 H 0.0 **** 0.06
13929 H 3.0646162176428504 112.93215066778606 21.29940126285267 H 0.0 **** 0.06
13930 H 3.327649463958494 113.16581305981762 19.554184424123463 H 0.0 **** 0.06
13931 C 72.42240677858527 67.70837777398836 89.75470822469117 C 0.0 **** -0.24
13932 H 71.89731077612657 66.83218500476312 90.13547267447524 H 0.0 **** 0.06
13933 H 72.74458589714646 67.52266213122701 88.72978896898653 H 0.0 **** 0.06
13934 H 73.2927244165381 67.9100010957944 90.37901853315216 H 0.0 **** 0.06
13935 H 71.7544030502217 68.56940546252429 89.77484431318027 H 0.0 **** 0.06
13936 C 80.68089752424405 103.83421011849532 0.12234452598914913 C 0.0 **** -0.24
13937 H 80.62737718545387 102.77120391794537 0.35807432354241087 H 0.0 **** 0.06
13938 H 80.73615907587032 103.96384793126674 -0.9581323512821882 H 0.0 **** 0.06
13939 H 81.56811618247943 104.26419408422731 0.5869776727354292 H 0.0 **** 0.06
13940 H 79.79217029258942 104.335222380208 0.5039813442327841 H 0.0 **** 0.06
13941 C 23.494371780204972 95.76363683478024 91.31676634311958 C 0.0 **** -0.24
13942 H 22.87608676285265 96.33051897232028 92.01285858749384 H 0.0 **** 0.06
13943 H 23.407909651071293 94.69883662112451 91.53859751071246 H 0.0 **** 0.06
13944 H 24.533718936095056 96.07302547181308 91.41991771993582 H 0.0 **** 0.06
13945 H 23.15847173848607 95.9509495931585 90.29737379629796 H 0.0 **** 0.06
13946 C 110.40828825110316 41.56622073977715 85.18221148887255 C 0.0 **** -0.24
13947 H 110.95783657604693 40.62589746215983 85.20892919294309 H 0.0 **** 0.06
13948 H 109.51632154341195 41.483261331672594 85.80266633964271 H 0.0 **** 0.06
13949 H 110.11830609577652 41.78763609846965 84.1549988879284 H 0.0 **** 0.06
13950 H 111.04155727365975 42.36801060523311 85.56176185133242 H 0.0 **** 0.06
13951 C 101.48985743996707 20.72773106346728 32.16944569086888 C 0.0 **** -0.24
13952 H 102.43835445313994 20.804834034945195 32.70162302594696 H 0.0 **** 0.06
13953 H 101.53398886297612 19.895179919984717 31.465987630632043 H 0.0 **** 0.06
13954 H 101.30202021507563 21.653682659734287 31.626664978550338 H 0.0 **** 0.06
13955 H 100.68496611411962 20.556334164688554 32.884987617235964 H 0.0 **** 0.06
13956 C 98.72879707941223 43.830140859640935 49.80967296614443 C 0.0 **** -0.24
13957 H 98.76106529513422 42.94322270813095 50.44229771389547 H 0.0 **** 0.06
13958 H 99.61560201615384 43.85765247089805 49.17679681490144 H 0.0 **** 0.06
13959 H 98.70057822047895 44.7215273090846 50.436357913100494 H 0.0 **** 0.06
13960 H 97.8361424893983 43.79694139956566 49.185306335637705 H 0.0 **** 0.06
13961 C 78.68810188822061 17.72375294185332 84.3871397684735 C 0.0 **** -0.24
13962 H 79.74898846587075 17.961328361956475 84.31203525312065 H 0.0 **** 0.06
13963 H 78.10160179964691 18.565878262702086 84.01886845953453 H 0.0 **** 0.06
13964 H 78.43153176204714 17.530180965643353 85.42861265904929 H 0.0 **** 0.06
13965 H 78.4712840601583 16.839457185055494 83.78776077238518 H 0.0 **** 0.06
13966 C 118.90148957751461 5.759910934546909 14.080755472823569 C 0.0 **** -0.24
13967 H 118.1547754922515 4.975687337976439 14.204878591540876 H 0.0 **** 0.06
13968 H 118.7619437252903 6.244675913741119 13.114845558288494 H 0.0 **** 0.06
13969 H 119.8981579535592 5.322494597002915 14.128096356470962 H 0.0 **** 0.06
13970 H 118.78930143421964 6.496415623717866 14.876843301038718 H 0.0 **** 0.06
13971 C 31.485519994730737 52.51403193537425 101.7632976119319 C 0.0 **** -0.24
13972 H 30.8344274616058 51.97540482927096 101.0752079012687 H 0.0 **** 0.06
13973 H 32.12337134009272 51.804620132646875 102.29108233738887 H 0.0 **** 0.06
13974 H 30.878900441108954 53.06452723758136 102.4824768502375 H 0.0 **** 0.06
13975 H 32.106808090286165 53.21324009693814 101.20237581936189 H 0.0 **** 0.06
13976 C 40.582456895253486 12.680653618575139 44.093978859179515 C 0.0 **** -0.24
13977 H 41.408316068741996 13.107948180794224 43.52510706396356 H 0.0 **** 0.06
13978 H 39.63627077810091 13.007562861161645 43.66274306761875 H 0.0 **** 0.06
13979 H 40.64472635747677 13.013380776260828 45.13014790373603 H 0.0 **** 0.06
13980 H 40.64139475349356 11.592212014758474 44.05694625664893 H 0.0 **** 0.06
13981 C 66.48839115266915 82.80945154462967 55.03340811168766 C 0.0 **** -0.24
13982 H 67.1655981114319 81.9729843614727 55.21139861542008 H 0.0 **** 0.06
13983 H 65.46349348977199 82.49290743419613 55.22478388826431 H 0.0 **** 0.06
13984 H 66.58120291101523 83.13712710815213 53.99825218139762 H 0.0 **** 0.06
13985 H 66.74603542844895 83.6322971246687 55.6995887631322 H 0.0 **** 0.06
13986 C 75.50368882156616 66.13469205323133 102.53029773936368 C 0.0 **** -0.24
13987 H 75.84634433288738 65.64208769970526 101.62053773797629 H 0.0 **** 0.06
13988 H 75.74555449930892 65.5133583722461 103.39311905964226 H 0.0 **** 0.06
13989 H 74.42486215235698 66.28176912947788 102.47957812950773 H 0.0 **** 0.06
13990 H 75.99840827007884 67.10097976336897 102.6291808274957 H 0.0 **** 0.06
13991 C 54.04858064502102 29.777641338071888 93.25162848217019 C 0.0 **** -0.24
13992 H 54.67594207767718 30.25437670097172 92.49815507033509 H 0.0 **** 0.06
13993 H 54.316211241967494 28.72336877460411 93.33129296834522 H 0.0 **** 0.06
13994 H 53.00168404775346 29.866536570420315 92.96265747624028 H 0.0 **** 0.06
13995 H 54.203080971713035 30.265239446291062 94.21399267745676 H 0.0 **** 0.06
13996 C 4.397005271985421 83.13557232459374 76.73421086484294 C 0.0 **** -0.24
13997 H 3.6664358569673823 83.78788403950028 77.21267600399088 H 0.0 **** 0.06
13998 H 4.155847285450591 83.03598612208765 75.67529273101377 H 0.0 **** 0.06
13999 H 4.3717022818308635 82.1543939985167 77.2070405533994 H 0.0 **** 0.06
14000 H 5.392730760470357 83.56515204045417 76.84166838183805 H 0.0 **** 0.06
14001 C 82.61229443719395 93.38323980147021 78.20347557208154 C 0.0 **** -0.24
14002 H 81.98269069179636 92.50316244522324 78.3380086605573 H 0.0 **** 0.06
14003 H 81.99668587715865 94.28206330952017 78.26017337580305 H 0.0 **** 0.06
14004 H 83.09793315759683 93.33608453713367 77.2290734418273 H 0.0 **** 0.06
14005 H 83.36950650602685 93.411199407092 78.98617615234147 H 0.0 **** 0.06
14006 C 34.73962702413152 50.07748957544621 105.67989130608606 C 0.0 **** -0.24
14007 H 35.11324767110324 50.1583101691067 106.70147824091413 H 0.0 **** 0.06
14008 H 34.57538205301742 51.07573022241567 105.27363110387046 H 0.0 **** 0.06
14009 H 33.80025112779603 49.5253337912591 105.67989010178292 H 0.0 **** 0.06
14010 H 35.47059933781381 49.55147501756636 105.06663015868347 H 0.0 **** 0.06
14011 C 70.84569527663334 102.80926384545589 65.50776971437591 C 0.0 **** -0.24
14012 H 71.1866078945921 102.96100685922269 66.53198442953786 H 0.0 **** 0.06
14013 H 70.04880254877216 103.51804372829355 65.28231640539855 H 0.0 **** 0.06
14014 H 70.46988008844917 101.79259479275333 65.39791050889647 H 0.0 **** 0.06
14015 H 71.67748161061553 102.96624848041105 64.82191668232397 H 0.0 **** 0.06
14016 C 40.85188434246734 13.227346654164535 115.502348639964 C 0.0 **** -0.24
14017 H 40.21476121217985 13.896873565041915 114.92525686835057 H 0.0 **** 0.06
14018 H 40.275904824636996 12.355344296243004 115.81328858933131 H 0.0 **** 0.06
14019 H 41.22509701770312 13.75009460130417 116.38309492641321 H 0.0 **** 0.06
14020 H 41.692649944545266 12.90633280458951 114.88692726235234 H 0.0 **** 0.06
14021 C 45.54022868869128 59.10854020525193 73.00759546691978 C 0.0 **** -0.24
14022 H 45.11530055843591 58.25447155751391 72.47916853623678 H 0.0 **** 0.06
14023 H 44.73475633734176 59.74262087921721 73.3780278050113 H 0.0 **** 0.06
14024 H 46.170168569912214 59.68001633289407 72.32578690130259 H 0.0 **** 0.06
14025 H 46.140669108174166 58.7548351495883 73.84564209887873 H 0.0 **** 0.06
14026 C 9.014412273381424 14.16876391833705 105.8638317629032 C 0.0 **** -0.24
14027 H 9.761978633530603 14.939426140443231 105.6764914498562 H 0.0 **** 0.06
14028 H 8.25154232665399 14.560009982741235 106.53748087931336 H 0.0 **** 0.06
14029 H 9.492938759394193 13.302523773089035 106.32085971543523 H 0.0 **** 0.06
14030 H 8.551408813922876 13.873955627411192 104.92198251179258 H 0.0 **** 0.06
14031 C 56.35412609155685 9.603353570881495 71.21133882121794 C 0.0 **** -0.24
14032 H 56.64493108142045 8.80013645973106 70.53297832760165 H 0.0 **** 0.06
14033 H 57.24630649902866 10.123204939263164 71.55974200341782 H 0.0 **** 0.06
14034 H 55.82026705707722 9.18307154371995 72.06325585899589 H 0.0 **** 0.06
14035 H 55.705958331160105 10.304649499744645 70.68628865548285 H 0.0 **** 0.06
14036 C 98.69844222233519 56.93246139815989 97.83190011470506 C 0.0 **** -0.24
14037 H 99.71301316185446 56.72040665061314 98.16714277948878 H 0.0 **** 0.06
14038 H 98.53160850172353 58.01069727185262 97.8373010800176 H 0.0 **** 0.06
14039 H 97.98586825457235 56.4506166828354 98.5011863968945 H 0.0 **** 0.06
14040 H 98.56316846336551 56.54900322987072 96.81968616825807 H 0.0 **** 0.06
14041 C 33.40297566170949 81.05580433028251 52.77427543907868 C 0.0 **** -0.24
14042 H 33.23330044708683 80.9471775780172 51.70334330070796 H 0.0 **** 0.06
14043 H 32.44529632145367 81.05927370866527 53.29600472132688 H 0.0 **** 0.06
14044 H 33.92506867223045 81.99307966198722 52.96612943918245 H 0.0 **** 0.06
14045 H 34.00892765416995 80.22257962266656 53.132170644469284 H 0.0 **** 0.06
14046 C 23.55402561968514 46.24539118167803 77.45368911626312 C 0.0 **** -0.24
14047 H 24.639080537439327 46.15811357274782 77.40078775045558 H 0.0 **** 0.06
14048 H 23.103289475073943 45.66803971887606 76.64657243563403 H 0.0 **** 0.06
14049 H 23.268951094894284 47.29322155051108 77.35502194934355 H 0.0 **** 0.06
14050 H 23.205754369140152 45.8624841946982 78.41335757330509 H 0.0 **** 0.06
14051 C 46.74318323790838 7.017366251630428 20.922209330521326 C 0.0 **** -0.24
14052 H 47.66019044225291 7.418165026272803 20.489845734030837 H 0.0 **** 0.06
14053 H 45.88362780287144 7.413862366731831 20.38142986036513 H 0.0 **** 0.06
14054 H 46.67905653187107 7.30680684615778 21.971039167746653 H 0.0 **** 0.06
14055 H 46.75075080147276 5.929343814588982 20.844639131187336 H 0.0 **** 0.06
14056 C 82.88655995330424 90.92868218324693 13.031369242153403 C 0.0 **** -0.24
14057 H 82.90648703324652 91.12046390638096 14.103638679620474 H 0.0 **** 0.06
14058 H 82.42254833817512 91.77179115311972 12.520084014090088 H 0.0 **** 0.06
14059 H 82.31172373880545 90.02340523395702 12.835029935056525 H 0.0 **** 0.06
14060 H 83.90581768412196 90.79822858589748 12.667149951470762 H 0.0 **** 0.06
14061 C 21.70904348710716 50.79702647114019 102.95781954844443 C 0.0 **** -0.24
14062 H 20.95509156489448 50.339342959765084 103.59828299940156 H 0.0 **** 0.06
14063 H 21.450053158143312 50.62495411314787 101.91309650196922 H 0.0 **** 0.06
14064 H 22.682811204586045 50.35372849983672 103.16824654531945 H 0.0 **** 0.06
14065 H 21.748103862981395 51.86867518092019 103.15153951274354 H 0.0 **** 0.06
14066 C 85.6591498590926 96.07089687884249 48.232713840779596 C 0.0 **** -0.24
14067 H 85.32740961404133 96.94352209694387 48.797235660591866 H 0.0 **** 0.06
14068 H 85.27353874334923 95.16695134745922 48.703088813695615 H 0.0 **** 0.06
14069 H 86.74838213774066 96.03961205409902 48.2200094235435 H 0.0 **** 0.06
14070 H 85.2861383056574 96.13746159202225 47.21073211676219 H 0.0 **** 0.06
14071 C 112.48831154051271 39.4289470537565 74.26518014927422 C 0.0 **** -0.24
14072 H 112.59261423702347 39.77060472904793 73.23519610554507 H 0.0 **** 0.06
14073 H 111.66537596708895 39.96172188580971 74.74324315108589 H 0.0 **** 0.06
14074 H 113.41294802835645 39.62356114110267 74.80833375281725 H 0.0 **** 0.06
14075 H 112.28139869307083 38.35825824875059 74.27237381249881 H 0.0 **** 0.06
14076 C 0.7228879838382909 107.94644529805907 69.64294086616928 C 0.0 **** -0.24
14077 H 0.44000006701902805 108.29329687589893 70.63647924100945 H 0.0 **** 0.06
14078 H 1.4269398899153742 107.11860326030217 69.7348085877303 H 0.0 **** 0.06
14079 H 1.1917741928383236 108.76182248669264 69.09248935196229 H 0.0 **** 0.06
14080 H -0.1657925154978983 107.6104226120701 69.10865549767686 H 0.0 **** 0.06
14081 C 66.07247579758968 85.48698705543117 85.86276506364604 C 0.0 **** -0.24
14082 H 65.28950376754241 85.64939561680919 86.60270446882299 H 0.0 **** 0.06
14083 H 66.31881448453083 84.42523437142242 85.82265643166335 H 0.0 **** 0.06
14084 H 66.95970133068207 86.05492941302634 86.14045264101443 H 0.0 **** 0.06
14085 H 65.72143188302917 85.81603505697066 84.88474067327377 H 0.0 **** 0.06
14086 C 85.89763532004622 26.941340370111106 58.430266959567035 C 0.0 **** -0.24
14087 H 84.91112413926706 27.36540057251949 58.62073173626894 H 0.0 **** 0.06
14088 H 86.19821479879974 27.167144644536506 57.40673064678799 H 0.0 **** 0.06
14089 H 85.86053451106272 25.861506039029223 58.569512801395376 H 0.0 **** 0.06
14090 H 86.61783479426558 27.373468488418325 59.124655257061164 H 0.0 **** 0.06
14091 C 47.830559601519866 51.495430118523416 107.59474726431301 C 0.0 **** -0.24
14092 H 47.20746255363246 52.138217725655636 106.97348222357928 H 0.0 **** 0.06
14093 H 48.61085635050027 51.045001842757586 106.98231570918045 H 0.0 **** 0.06
14094 H 47.21549331795934 50.71049716475085 108.03601918975173 H 0.0 **** 0.06
14095 H 48.28719920171116 52.08830358482328 108.38780811039018 H 0.0 **** 0.06
14096 C 68.81225309584781 64.00772584888543 121.08190167597438 C 0.0 **** -0.24
14097 H 68.06680931784692 64.50785862103854 121.70074329636148 H 0.0 **** 0.06
14098 H 68.3183423419496 63.515239049942686 120.24461318445017 H 0.0 **** 0.06
14099 H 69.34107305004758 63.26519107975469 121.680281785512 H 0.0 **** 0.06
14100 H 69.52253632180285 64.74359399394694 120.7047930080762 H 0.0 **** 0.06
14101 C 11.611766693822346 77.29248516263164 66.84539061435066 C 0.0 **** -0.24
14102 H 12.350770654464498 76.65358914590905 67.32887810495677 H 0.0 **** 0.06
14103 H 10.888882058671243 76.67410728509742 66.31268265593908 H 0.0 **** 0.06
14104 H 12.112007717538802 77.95747758983941 66.14137632579178 H 0.0 **** 0.06
14105 H 11.095610868902043 77.8855392431031 67.60094087763349 H 0.0 **** 0.06
14106 C 38.86196020152436 114.30437443374164 75.11392503909218 C 0.0 **** -0.24
14107 H 39.10870997716129 113.99833783004706 74.09763854678334 H 0.0 **** 0.06
14108 H 39.61435888538819 115.00728340824108 75.47442807239705 H 0.0 **** 0.06
14109 H 38.84254891236555 113.42860782009349 75.76295754703978 H 0.0 **** 0.06
14110 H 37.8829704698335 114.78392161231754 75.12209555958296 H 0.0 **** 0.06
14111 C 91.82047721120227 43.225329594294976 3.9321108517590346 C 0.0 **** -0.24
14112 H 91.92740052522947 44.24740254225816 3.567657196218761 H 0.0 **** 0.06
14113 H 92.3697583177069 42.54836206349299 3.278024204665087 H 0.0 **** 0.06
14114 H 90.76577706214766 42.95034803978109 3.936678700971612 H 0.0 **** 0.06
14115 H 92.21789777633461 43.15678189811689 4.943561345710037 H 0.0 **** 0.06
14116 C 56.25570042611463 23.626480078961805 56.85532075124053 C 0.0 **** -0.24
14117 H 56.280178735119335 24.49393057993899 57.51433025702278 H 0.0 **** 0.06
14118 H 56.970508710586245 23.766823310931102 56.04424427858035 H 0.0 **** 0.06
14119 H 55.253959350753206 23.512767832720925 56.4421532094392 H 0.0 **** 0.06
14120 H 56.5192100420183 22.732690472759856 57.421450586284806 H 0.0 **** 0.06
14121 C 85.19258299306307 65.4722605437675 115.26409061709353 C 0.0 **** -0.24
14122 H 84.40174154974295 65.54211403937464 116.01065099997737 H 0.0 **** 0.06
14123 H 85.75480284635529 66.40686331465335 115.2416911496187 H 0.0 **** 0.06
14124 H 84.75201032252721 65.29045162453275 114.28362981318219 H 0.0 **** 0.06
14125 H 85.86210163102766 64.65164182996222 115.51950749714246 H 0.0 **** 0.06
14126 C 55.124605306499745 109.33307660889986 78.89067130735293 C 0.0 **** -0.24
14127 H 56.08283026696387 109.85207837530086 78.92508433314399 H 0.0 **** 0.06
14128 H 54.91786047737946 109.02141354147946 77.86605190127318 H 0.0 **** 0.06
14129 H 54.336315713698355 110.00341707958316 79.23283396650837 H 0.0 **** 0.06
14130 H 55.16280982161885 108.45734987524011 79.53691438418687 H 0.0 **** 0.06
14131 C 77.17964997080148 71.06441286385336 37.696887658082446 C 0.0 **** -0.24
14132 H 78.05191812604511 71.60675436356644 37.33250588973373 H 0.0 **** 0.06
14133 H 77.05004559848797 71.26025636827356 38.7613406460914 H 0.0 **** 0.06
14134 H 77.3251614733295 69.9964430897748 37.53880534840628 H 0.0 **** 0.06
14135 H 76.29437050568424 71.39534192253043 37.155451364130954 H 0.0 **** 0.06
14136 C 4.404471597574172 54.72168018833196 6.806195688939063 C 0.0 **** -0.24
14137 H 4.415118364742568 55.80956178889542 6.875415734410915 H 0.0 **** 0.06
14138 H 5.37259242029927 54.370974174232884 6.445985195955817 H 0.0 **** 0.06
14139 H 3.6231064332301344 54.40907232896532 6.113524820264505 H 0.0 **** 0.06
14140 H 4.207741420992704 54.29681482060312 7.791065145309339 H 0.0 **** 0.06
14141 C 98.12374058669863 20.513207562408414 115.74473340568092 C 0.0 **** -0.24
14142 H 98.41596002957641 21.313073006730903 116.425220881663 H 0.0 **** 0.06
14143 H 98.54260378616894 19.568906057098673 116.09310739918143 H 0.0 **** 0.06
14144 H 98.50103742667253 20.731351607805337 114.74576374310327 H 0.0 **** 0.06
14145 H 97.03667957293706 20.440621586873455 115.71478771252382 H 0.0 **** 0.06
14146 C 54.69219730990329 4.647790939382233 76.74522373874152 C 0.0 **** -0.24
14147 H 55.64595553836642 4.459564173976709 76.25309061679351 H 0.0 **** 0.06
14148 H 54.57033733025622 3.9560344987561216 77.57873636751168 H 0.0 **** 0.06
14149 H 53.880361725570594 4.504446653673384 76.03136689673576 H 0.0 **** 0.06
14150 H 54.67174164717821 5.672884763552158 77.11684910867956 H 0.0 **** 0.06
14151 C 98.42567239557098 54.93600605103122 4.799355526502865 C 0.0 **** -0.24
14152 H 97.82440341600835 55.8455986372748 4.770612530479184 H 0.0 **** 0.06
14153 H 99.25902762566508 55.074602479254814 5.489005645574878 H 0.0 **** 0.06
14154 H 98.80982517902501 54.72308670751436 3.802244164807405 H 0.0 **** 0.06
14155 H 97.8083125250038 54.103590177398935 5.1374572081233225 H 0.0 **** 0.06
14156 C 8.781088147379112 87.84304594699097 61.18429334645339 C 0.0 **** -0.24
14157 H 8.898203578593549 88.5051400570261 60.32680663899069 H 0.0 **** 0.06
14158 H 9.733912685901768 87.75474494352187 61.707474512372386 H 0.0 **** 0.06
14159 H 8.461240989018957 86.85809884497752 60.84240857382267 H 0.0 **** 0.06
14160 H 8.030995336002164 88.2541999424385 61.86048366062812 H 0.0 **** 0.06
14161 C 46.39053838852868 88.05846821168583 85.57964860607893 C 0.0 **** -0.24
14162 H 45.71861659797827 87.2227543709611 85.7754791984899 H 0.0 **** 0.06
14163 H 45.80586360531282 88.94019573052557 85.31908756107163 H 0.0 **** 0.06
14164 H 47.05484966470107 87.8041222023075 84.75384671911905 H 0.0 **** 0.06
14165 H 46.98144471647822 88.26458458046088 86.47166028803463 H 0.0 **** 0.06
14166 C 98.83269169565196 48.420829328807855 88.05485468576964 C 0.0 **** -0.24
14167 H 98.16709322519526 47.56202855390231 88.1450659235685 H 0.0 **** 0.06
14168 H 99.62849598173455 48.18875777365304 87.34701539187077 H 0.0 **** 0.06
14169 H 99.26680196570982 48.64828262890413 89.02821606363679 H 0.0 **** 0.06
14170 H 98.26769348765015 49.282137047986055 87.69884323773258 H 0.0 **** 0.06
14171 C 29.88922387497064 18.478120494097077 81.87793574777558 C 0.0 **** -0.24
14172 H 30.25714024452668 17.909962938313985 82.73297067678305 H 0.0 **** 0.06
14173 H 29.634510185348915 19.488932493549584 82.1968090426848 H 0.0 **** 0.06
14174 H 29.00390976986955 17.989797871668316 81.47173871106449 H 0.0 **** 0.06
14175 H 30.663432941935696 18.523111103572678 81.11199691607897 H 0.0 **** 0.06
14176 C 72.3012059511683 93.370951821976 83.09183889272384 C 0.0 **** -0.24
14177 H 73.03284121779961 92.85807722806621 83.7166625893621 H 0.0 **** 0.06
14178 H 71.59913320856083 92.64393947367245 82.68256015338514 H 0.0 **** 0.06
14179 H 72.81455424435319 93.87973234433869 82.27511549250161 H 0.0 **** 0.06
14180 H 71.76016703125356 94.10159450257487 83.69248708186055 H 0.0 **** 0.06
14181 C 51.2549369938468 51.42202590456429 50.88165297707144 C 0.0 **** -0.24
14182 H 51.41273148953351 51.00628903954211 49.88605118267844 H 0.0 **** 0.06
14183 H 50.678218859808595 52.34411412298144 50.80229493618299 H 0.0 **** 0.06
14184 H 52.219104817093864 51.63488537210128 51.34186087343156 H 0.0 **** 0.06
14185 H 50.710841678991386 50.702871131041604 51.49329403691951 H 0.0 **** 0.06
14186 C 8.074083950575073 20.522524932323048 58.110151945147805 C 0.0 **** -0.24
14187 H 7.603902696392282 20.19624402958305 57.182819504798346 H 0.0 **** 0.06
14188 H 7.351048372433127 20.462608734603545 58.92416778076433 H 0.0 **** 0.06
14189 H 8.415830737797364 21.55211200796957 58.00158516657112 H 0.0 **** 0.06
14190 H 8.925553995677603 19.879134957135914 58.332035328457806 H 0.0 **** 0.06
14191 C 68.95934785756197 91.27082652021525 67.50974661185381 C 0.0 **** -0.24
14192 H 69.72208738147347 91.99033127638444 67.21128978462735 H 0.0 **** 0.06
14193 H 68.14558859701026 91.28351833480127 66.78451428677698 H 0.0 **** 0.06
14194 H 68.57391633691313 91.53738860589544 68.4936405603404 H 0.0 **** 0.06
14195 H 69.39645143940618 90.2735265829076 67.54833897161126 H 0.0 **** 0.06
14196 C 4.213189898897724 97.77370271996722 91.48989548545526 C 0.0 **** -0.24
14197 H 4.345283977372617 96.78431277771767 91.05277217603586 H 0.0 **** 0.06
14198 H 4.966163009183816 97.93109344943568 92.2632892282692 H 0.0 **** 0.06
14199 H 3.218673826915051 97.84729173394413 91.93018809459514 H 0.0 **** 0.06
14200 H 4.324370685934156 98.53177199791847 90.7147052358628 H 0.0 **** 0.06
14201 C 5.261797786220161 44.326073778926485 34.096956790786656 C 0.0 **** -0.24
14202 H 4.808686443303991 43.93152605010522 35.00675367110576 H 0.0 **** 0.06
14203 H 5.963403498577197 43.5948022048062 33.693740321240995 H 0.0 **** 0.06
14204 H 5.7906348612695595 45.250595582952826 34.32613324214361 H 0.0 **** 0.06
14205 H 4.48304300445619 44.52597371047676 33.36105453568866 H 0.0 **** 0.06
14206 C 15.59817099553634 80.10296171650825 92.93769388605693 C 0.0 **** -0.24
14207 H 15.608448763490255 80.40536554816217 91.89139501928435 H 0.0 **** 0.06
14208 H 15.486022970979935 80.98433796245425 93.56981247569706 H 0.0 **** 0.06
14209 H 16.532987992882386 79.59803123804949 93.1802995328309 H 0.0 **** 0.06
14210 H 14.763297764823534 79.42354693762402 93.11067192021716 H 0.0 **** 0.06
14211 C 22.432910676711117 13.039230333235956 49.09393777435031 C 0.0 **** -0.24
14212 H 22.287445730805175 12.576005999071327 48.11751452976 H 0.0 **** 0.06
14213 H 21.46681066227933 13.163444695612757 49.58346581325752 H 0.0 **** 0.06
14214 H 22.9050071598938 14.013157664061225 48.96684503701232 H 0.0 **** 0.06
14215 H 23.072015490240744 12.40344180477977 49.70616247171043 H 0.0 **** 0.06
14216 C 67.01020236014227 33.320065220202565 19.871186542675765 C 0.0 **** -0.24
14217 H 67.23267146616371 33.984937140627096 20.704772087974526 H 0.0 **** 0.06
14218 H 66.18887571463279 32.6568511531126 20.143224757324614 H 0.0 **** 0.06
14219 H 67.89343254957271 32.72569999636963 19.634793636661794 H 0.0 **** 0.06
14220 H 66.72707915426241 33.91112221333478 19.000028102328233 H 0.0 **** 0.06
14221 C 24.804618833680195 2.013414278315734 26.90266354296358 C 0.0 **** -0.24
14222 H 24.038619351652244 1.3409014094754177 27.28769252616351 H 0.0 **** 0.06
14223 H 25.651662453075915 1.429055141580987 26.542189300224152 H 0.0 **** 0.06
14224 H 25.135163540531607 2.68081978827016 27.698374669509775 H 0.0 **** 0.06
14225 H 24.393026116743272 2.6006864140367405 26.081967503960726 H 0.0 **** 0.06
14226 C 99.65527567244533 92.82195945397675 118.67894403003854 C 0.0 **** -0.24
14227 H 99.79234942325866 93.89812331967693 118.78258873805535 H 0.0 **** 0.06
14228 H 99.35338565005515 92.40037221442961 119.63793295955048 H 0.0 **** 0.06
14229 H 100.59243824008098 92.36537219072358 118.36011721446987 H 0.0 **** 0.06
14230 H 98.88374125172467 92.62453842702902 117.93500338602091 H 0.0 **** 0.06
14231 C 98.0047646333656 96.69904413486063 29.42763838507429 C 0.0 **** -0.24
14232 H 97.89523052147567 97.65770759940006 28.92041577057455 H 0.0 **** 0.06
14233 H 97.41725859265276 95.94276764187651 28.904284958038716 H 0.0 **** 0.06
14234 H 97.65100395572398 96.78816659536415 30.454742418361924 H 0.0 **** 0.06
14235 H 99.05527835141183 96.40617537523269 29.42864660752665 H 0.0 **** 0.06
14236 C 121.18600439689283 85.34860606539891 104.40624439103732 C 0.0 **** -0.24
14237 H 122.1061276743402 85.62521656897917 104.9224158689317 H 0.0 **** 0.06
14238 H 120.36477214156957 85.31282951723551 105.12206472496598 H 0.0 **** 0.06
14239 H 121.3097140888915 84.36866294109072 103.94493914433048 H 0.0 **** 0.06
14240 H 120.96555514698332 86.08787298284014 103.63614654949669 H 0.0 **** 0.06
14241 C 109.69181840557289 79.56499670593325 16.140910488785295 C 0.0 **** -0.24
14242 H 110.7451293941914 79.78520390556855 15.966758573151708 H 0.0 **** 0.06
14243 H 109.58684768125784 78.53376929884323 16.47822831849973 H 0.0 **** 0.06
14244 H 109.13438384964658 79.70309893902811 15.214450225223729 H 0.0 **** 0.06
14245 H 109.30153797882906 80.23876918633118 16.903267312994544 H 0.0 **** 0.06
14246 C 79.03161070514699 65.04876675003493 72.37526223424928 C 0.0 **** -0.24
14247 H 78.25653069246857 65.66129334864493 71.91394964505687 H 0.0 **** 0.06
14248 H 78.57061180640994 64.20031421658902 72.88223808781285 H 0.0 **** 0.06
14249 H 79.58494088786978 65.64662913409398 73.09881828222399 H 0.0 **** 0.06
14250 H 79.7137976566992 64.68607836082853 71.60569788803758 H 0.0 **** 0.06
14251 C 48.95812366980505 56.53752318570133 52.176288275947904 C 0.0 **** -0.24
14252 H 49.56277168046914 56.60242618223663 53.0803902966318 H 0.0 **** 0.06
14253 H 49.5072694325238 55.98841626989588 51.41137216321037 H 0.0 **** 0.06
14254 H 48.73550020943611 57.541458285404644 51.81478413869541 H 0.0 **** 0.06
14255 H 48.02624311592072 56.01671356718555 52.39918325522822 H 0.0 **** 0.06
14256 C 7.3027513888097815 50.75373070864413 47.785774795766244 C 0.0 **** -0.24
14257 H 6.555315627056672 51.245382651598106 47.162225007023444 H 0.0 **** 0.06
14258 H 7.0415198965039565 49.70129985592382 47.90238788192303 H 0.0 **** 0.06
14259 H 7.3313329001950365 51.23263311459027 48.76355473369809 H 0.0 **** 0.06
14260 H 8.280744718778834 50.835368635235056 47.311838718805575 H 0.0 **** 0.06
14261 C 76.94606197911384 82.0279463482074 4.8113947184780415 C 0.0 **** -0.24
14262 H 77.30881984443559 81.86971479091673 5.8274408214677464 H 0.0 **** 0.06
14263 H 76.52770210440164 81.09707515046986 4.426186905259456 H 0.0 **** 0.06
14264 H 77.77308446155985 82.3453783570539 4.176316093644118 H 0.0 **** 0.06
14265 H 76.1756217779706 82.798151785774 4.817010631947824 H 0.0 **** 0.06
14266 C 94.52903392057272 15.325142488446588 7.4751558423756705 C 0.0 **** -0.24
14267 H 95.28809688229629 14.836213331866176 8.0855719416748 H 0.0 **** 0.06
14268 H 94.74041735116015 15.145303632417736 6.420886814641818 H 0.0 **** 0.06
14269 H 94.5398624746085 16.396772863431323 7.6713347130877025 H 0.0 **** 0.06
14270 H 93.54801913342865 14.91948006846954 7.723133939432557 H 0.0 **** 0.06
14271 C 119.87418026611942 19.61802210050422 43.17347108892841 C 0.0 **** -0.24
14272 H 119.3687538141698 20.38033693994356 42.581875593009386 H 0.0 **** 0.06
14273 H 120.85416890247231 19.985163795956623 43.47967432752762 H 0.0 **** 0.06
14274 H 119.99437967973778 18.714483635758086 42.57593493070692 H 0.0 **** 0.06
14275 H 119.27775994123624 19.391809721351024 44.05817780179598 H 0.0 **** 0.06
14276 C 89.58230739057495 114.86846912992658 17.15181245792661 C 0.0 **** -0.24
14277 H 88.54898278367773 114.85777184288105 16.80576343347022 H 0.0 **** 0.06
14278 H 89.92015380458207 113.84542371390904 17.31886346186301 H 0.0 **** 0.06
14279 H 89.64744289601572 115.42971315235374 18.0840622392879 H 0.0 **** 0.06
14280 H 90.21265007802421 115.34096781056277 16.398560697085443 H 0.0 **** 0.06
14281 C 26.88619390580167 78.44170819917744 76.07641286071433 C 0.0 **** -0.24
14282 H 27.611891748536777 78.59167098551879 76.87710571792877 H 0.0 **** 0.06
14283 H 27.08498139779067 77.49145154772106 75.58007829588703 H 0.0 **** 0.06
14284 H 26.969343746436145 79.25348652754388 75.35443909015461 H 0.0 **** 0.06
14285 H 25.880382967946105 78.42941698427094 76.4962692784803 H 0.0 **** 0.06
14286 C 77.16569876758658 110.91457238764363 18.65940059871641 C 0.0 **** -0.24
14287 H 77.31036138298575 110.10510992070252 17.943395423184167 H 0.0 **** 0.06
14288 H 77.86063969784075 111.72503523752063 18.436460519169817 H 0.0 **** 0.06
14289 H 77.35026842595946 110.54403522909149 19.668467725677246 H 0.0 **** 0.06
14290 H 76.14279335320433 111.28348418315085 18.589231603518964 H 0.0 **** 0.06
14291 C 83.4480405075096 10.21417258009842 95.96436181720208 C 0.0 **** -0.24
14292 H 84.49174068756207 9.925276941536595 96.08305176638902 H 0.0 **** 0.06
14293 H 83.37346012174402 11.30115118758647 95.93147708535685 H 0.0 **** 0.06
14294 H 82.86835622489826 9.835404097056312 96.80657303641078 H 0.0 **** 0.06
14295 H 83.0581809901351 9.793645325538847 95.03693658504244 H 0.0 **** 0.06
14296 C 83.39712065224313 81.43551968207834 101.41402009563024 C 0.0 **** -0.24
14297 H 83.87828799522757 80.47882215484947 101.20751820038004 H 0.0 **** 0.06
14298 H 82.53180708702189 81.2750283045626 102.0566732281527 H 0.0 **** 0.06
14299 H 83.07468456795539 81.88975066436521 100.47658403399458 H 0.0 **** 0.06
14300 H 84.10384447486129 82.09713078356211 101.91326374865469 H 0.0 **** 0.06
14301 C 59.23404427585234 18.487625360929457 33.33810634614477 C 0.0 **** -0.24
14302 H 58.4165925212296 17.76935821689183 33.41243100175192 H 0.0 **** 0.06
14303 H 59.42354415146704 18.924862130799518 34.319163946123375 H 0.0 **** 0.06
14304 H 58.96099369976639 19.275096959294075 32.635813685224726 H 0.0 **** 0.06
14305 H 60.13204917264804 17.98130419834664 32.98504377777506 H 0.0 **** 0.06
14306 C 67.43615215594599 86.05174669419472 107.58708614323399 C 0.0 **** -0.24
14307 H 67.4708818605992 86.33309943070347 108.63918099067442 H 0.0 **** 0.06
14308 H 67.78146202046182 86.88647378629165 106.97615900221368 H 0.0 **** 0.06
14309 H 66.41272160107707 85.79729404695107 107.3113346537516 H 0.0 **** 0.06
14310 H 68.08115112227287 85.18870019073466 107.42103731156473 H 0.0 **** 0.06
14311 C 117.98964042803358 16.713701980141934 73.41542036969565 C 0.0 **** -0.24
14312 H 118.71024093034079 17.300325454406078 72.84674219056089 H 0.0 **** 0.06
14313 H 118.52043313366153 16.013460376591382 74.06021794645596 H 0.0 **** 0.06
14314 H 117.3481278687025 16.161345394875383 72.72871812470976 H 0.0 **** 0.06
14315 H 117.37975977942962 17.379676694695235 74.02600321705614 H 0.0 **** 0.06
14316 C 110.79097332283123 41.07099109406494 114.37124512579157 C 0.0 **** -0.24
14317 H 110.50842191754404 42.12094749325419 114.44398686562698 H 0.0 **** 0.06
14318 H 111.40853304368585 40.92146024667744 113.48472793349487 H 0.0 **** 0.06
14319 H 109.89355708193358 40.45669185131854 114.29738265832142 H 0.0 **** 0.06
14320 H 111.35469420965798 40.78447814028425 115.25923906438823 H 0.0 **** 0.06
14321 C 68.31692430484412 113.50736238386256 20.00309289639995 C 0.0 **** -0.24
14322 H 68.13997800933242 113.37915255691794 18.935557727124547 H 0.0 **** 0.06
14323 H 68.06867344136748 112.58343722278526 20.52535330095155 H 0.0 **** 0.06
14324 H 67.69016792608392 114.31710866167673 20.37953366763317 H 0.0 **** 0.06
14325 H 69.36569980076689 113.75100649732558 20.170775917939693 H 0.0 **** 0.06
14326 C 116.03325054809596 31.903486361978935 59.26582038289686 C 0.0 **** -0.24
14327 H 115.9246908290954 30.96580234336045 58.721916412462605 H 0.0 **** 0.06
14328 H 116.66479615309171 32.583913080941215 58.69443892585841 H 0.0 **** 0.06
14329 H 116.49094243142997 31.710722453554354 60.23628180056295 H 0.0 **** 0.06
14330 H 115.05106345981002 32.35514990642025 59.41080239865104 H 0.0 **** 0.06
14331 C 45.26957538805431 76.3853488522264 111.18079543199644 C 0.0 **** -0.24
14332 H 44.762959790962924 75.75532593363627 110.44977499377853 H 0.0 **** 0.06
14333 H 45.17683426695648 77.430754070434 110.88638220863706 H 0.0 **** 0.06
14334 H 46.324010750563346 76.11200189515753 111.226212003977 H 0.0 **** 0.06
14335 H 44.81491914624676 76.24113172308898 112.1610608393559 H 0.0 **** 0.06
14336 C 108.80258356268911 84.01621136902571 88.77019892455954 C 0.0 **** -0.24
14337 H 109.10062298938885 84.97392670797663 89.19599455253697 H 0.0 **** 0.06
14338 H 108.50240675471048 84.15735672937907 87.73133990402764 H 0.0 **** 0.06
14339 H 107.96612250611673 83.61020375579398 89.33962484975723 H 0.0 **** 0.06
14340 H 109.64299274622795 83.32212911721444 88.81493670351625 H 0.0 **** 0.06
14341 C 55.396492840931955 87.21364591047859 101.3120992737814 C 0.0 **** -0.24
14342 H 55.153772866476885 88.26457558141692 101.47004857465345 H 0.0 **** 0.06
14343 H 55.31247626207238 86.97794318322798 100.25082522184596 H 0.0 **** 0.06
14344 H 54.702966373779844 86.59277254645201 101.8788985444802 H 0.0 **** 0.06
14345 H 56.41482132610864 87.02106382439752 101.64756653441094 H 0.0 **** 0.06
14346 C 35.14430585737608 47.56068469530982 21.214050517777565 C 0.0 **** -0.24
14347 H 34.98137877129659 46.49909173651275 21.0281842168159 H 0.0 **** 0.06
14348 H 34.34454570261147 47.945219580448395 21.846085866516063 H 0.0 **** 0.06
14349 H 35.14909362202218 48.097840874832684 20.265759724170806 H 0.0 **** 0.06
14350 H 36.10206141429046 47.69903452968384 21.7145689308133 H 0.0 **** 0.06
14351 C 70.87974441436052 49.83589285872421 79.8081660319132 C 0.0 **** -0.24
14352 H 71.88454739509177 49.95400546431222 80.2131752714919 H 0.0 **** 0.06
14353 H 70.17172582189022 50.38317578533332 80.43160670844551 H 0.0 **** 0.06
14354 H 70.61443728651864 48.77880874150125 79.79809549161058 H 0.0 **** 0.06
14355 H 70.84866149203282 50.227823786552335 78.79219208775231 H 0.0 **** 0.06
14356 C 79.57622177343364 23.6902946676434 62.746862775522146 C 0.0 **** -0.24
14357 H 78.99967752191137 23.084236119973156 63.445535000586034 H 0.0 **** 0.06
14358 H 80.27823311636726 24.314572709835943 63.3012094418246 H 0.0 **** 0.06
14359 H 78.90065269393668 24.32372745259883 62.1727579016796 H 0.0 **** 0.06
14360 H 80.12666634791779 23.03731678839111 62.06971672239544 H 0.0 **** 0.06
14361 C 42.551774981465826 72.00581203001357 10.714077642088682 C 0.0 **** -0.24
14362 H 43.53396891082673 71.61812149185016 10.984215114915173 H 0.0 **** 0.06
14363 H 41.7838448658224 71.29587804607146 11.021915629455407 H 0.0 **** 0.06
14364 H 42.50306165847519 72.14964183394261 9.634669409202843 H 0.0 **** 0.06
14365 H 42.38699517438624 72.95935000516585 11.216093668926646 H 0.0 **** 0.06
14366 C 121.91571447216887 53.39101175268184 24.896360219954488 C 0.0 **** -0.24
14367 H 122.00490579348431 53.410264794379195 23.809844504982607 H 0.0 **** 0.06
14368 H 121.32638747091843 54.247206348197885 25.227782529070907 H 0.0 **** 0.06
14369 H 122.90824154306921 53.436666102148 25.34381612230146 H 0.0 **** 0.06
14370 H 121.42075795594187 52.46956455616093 25.202856930818143 H 0.0 **** 0.06
14371 C 69.39705538848901 70.47520198151389 94.35079453497261 C 0.0 **** -0.24
14372 H 68.44784608966444 70.97013346295466 94.14518648082003 H 0.0 **** 0.06
14373 H 69.21005894281754 69.50742526243036 94.81554140115739 H 0.0 **** 0.06
14374 H 69.99028302382317 71.09382764192557 95.02447503350152 H 0.0 **** 0.06
14375 H 69.94068068058806 70.33122923566577 93.41682904087108 H 0.0 **** 0.06
14376 C 10.327443934803654 57.51466684456588 58.447124768707454 C 0.0 **** -0.24
14377 H 9.394097659309551 57.33763549843067 57.91226423865919 H 0.0 **** 0.06
14378 H 11.16600321424437 57.405590780827964 57.75916918092611 H 0.0 **** 0.06
14379 H 10.424847988454871 56.79161189540869 59.25738223366034 H 0.0 **** 0.06
14380 H 10.32404380194609 58.523427810646524 58.85920830843929 H 0.0 **** 0.06
14381 C 42.336561267735476 101.84049007848759 104.87658689519097 C 0.0 **** -0.24
14382 H 41.85078770398326 101.4322002081382 105.76335327217214 H 0.0 **** 0.06
14383 H 42.65298800488563 102.86508376795058 105.07517463493971 H 0.0 **** 0.06
14384 H 41.63645013230234 101.83212780702002 104.04192197310837 H 0.0 **** 0.06
14385 H 43.206734176043994 101.23356851461253 104.62775478515314 H 0.0 **** 0.06
14386 C 91.92279796682499 60.99294859736048 12.586784674894801 C 0.0 **** -0.24
14387 H 92.46268899028487 61.917002891620626 12.378617660238262 H 0.0 **** 0.06
14388 H 90.8719177975525 61.22079402668339 12.769761587678516 H 0.0 **** 0.06
14389 H 92.3493082906023 60.51209249147928 13.46665536649897 H 0.0 **** 0.06
14390 H 92.00567185533399 60.32291032484679 11.730915073918396 H 0.0 **** 0.06
14391 C 6.16892752171832 122.62070602349533 42.55535755804186 C 0.0 **** -0.24
14392 H 5.295854693651044 123.00818932720193 43.08087414315264 H 0.0 **** 0.06
14393 H 6.058245616846435 122.80038418726338 41.48563168473265 H 0.0 **** 0.06
14394 H 6.257366431811711 121.54988324659271 42.73730326446599 H 0.0 **** 0.06
14395 H 7.064253330821369 123.12574054917059 42.917959205989916 H 0.0 **** 0.06
14396 C 45.16401581570926 106.35989325995763 59.57762080159808 C 0.0 **** -0.24
14397 H 45.860519002359354 106.3263825554817 60.41528389771111 H 0.0 **** 0.06
14398 H 44.72967543310534 105.37064224510675 59.42720108692263 H 0.0 **** 0.06
14399 H 45.695492835884295 106.66504318299405 58.67640450547436 H 0.0 **** 0.06
14400 H 44.37180707423221 107.0756846590906 59.79239277219289 H 0.0 **** 0.06
14401 C 36.08751054705081 12.287627367663447 97.2933473778163 C 0.0 **** -0.24
14402 H 36.974133643607416 12.63773114094937 97.82237288393489 H 0.0 **** 0.06
14403 H 35.213336070167514 12.400611857002673 97.9350838155641 H 0.0 **** 0.06
14404 H 36.21246373841154 11.236322867626711 97.03128487226141 H 0.0 **** 0.06
14405 H 35.9504700658259 12.874928589121453 96.38482750073726 H 0.0 **** 0.06
14406 C 97.99429237758312 66.62206629919007 19.190259072631257 C 0.0 **** -0.24
14407 H 98.57852885304811 65.85993329478464 19.70605473006411 H 0.0 **** 0.06
14408 H 97.24249044377646 67.0248450081358 19.87051888275656 H 0.0 **** 0.06
14409 H 97.50184423549717 66.17963661789219 18.324495296226864 H 0.0 **** 0.06
14410 H 98.65412107585567 67.42527751995311 18.861678832339646 H 0.0 **** 0.06
14411 C 111.97820765765155 9.13976018624362 39.65545987285586 C 0.0 **** -0.24
14412 H 110.98681666870232 9.53879618842224 39.8744790816221 H 0.0 **** 0.06
14413 H 112.31992458626752 9.52245505787701 38.693991579202475 H 0.0 **** 0.06
14414 H 111.92966414317664 8.050971200806927 39.6177071907062 H 0.0 **** 0.06
14415 H 112.67325975465869 9.44544614978301 40.436709343827545 H 0.0 **** 0.06
14416 C 99.786768146778 87.65278339118487 109.61546666295294 C 0.0 **** -0.24
14417 H 99.24990581553556 88.17744326307053 108.82476632888611 H 0.0 **** 0.06
14418 H 100.736707393438 87.28575045978752 109.22668087054512 H 0.0 **** 0.06
14419 H 99.1879376599062 86.81150153465501 109.96527525249041 H 0.0 **** 0.06
14420 H 99.97269604618089 88.3360633146703 110.44379175703577 H 0.0 **** 0.06
14421 C 109.06323698089659 96.10282882262013 93.71890929571768 C 0.0 **** -0.24
14422 H 108.94123641590346 95.78559691419952 92.68219138322024 H 0.0 **** 0.06
14423 H 109.10974937604243 97.1911521037151 93.7618299383582 H 0.0 **** 0.06
14424 H 109.98535486195982 95.68333130465865 94.1199037069511 H 0.0 **** 0.06
14425 H 108.21642055640672 95.75044420486108 94.30805967419252 H 0.0 **** 0.06
14426 C 81.379267822641 60.96447161721243 81.1907697689339 C 0.0 **** -0.24
14427 H 80.64287586533922 60.182400897402694 81.37189769703352 H 0.0 **** 0.06
14428 H 81.2178394873329 61.39257803950225 80.20083392256237 H 0.0 **** 0.06
14429 H 82.38165345294712 60.5402053802492 81.24380097662728 H 0.0 **** 0.06
14430 H 81.27357142496359 61.74460017222152 81.9454888617285 H 0.0 **** 0.06
14431 C 67.55764607150701 70.50507303174405 103.66773937394748 C 0.0 **** -0.24
14432 H 67.93438215868304 70.48344879012402 102.64546866382639 H 0.0 **** 0.06
14433 H 67.84996053752826 69.58905180036493 104.18221925559547 H 0.0 **** 0.06
14434 H 66.47095597950823 70.58297017678751 103.65219080742432 H 0.0 **** 0.06
14435 H 67.97654102965816 71.36536976308886 104.1907276460233 H 0.0 **** 0.06
14436 C 23.683068055687272 48.357472600036346 29.259452707169373 C 0.0 **** -0.24
14437 H 22.997260054895264 48.5039590208909 30.094115071925415 H 0.0 **** 0.06
14438 H 23.80532099115797 49.296949846096226 28.719600039105416 H 0.0 **** 0.06
14439 H 23.27982854243453 47.60094855539174 28.586672383450434 H 0.0 **** 0.06
14440 H 24.650136703650347 48.02618428372517 29.638651134922725 H 0.0 **** 0.06
14441 C 61.11651655989204 116.15688859884328 27.71683384824528 C 0.0 **** -0.24
14442 H 60.26714152465815 116.01066184595781 28.383608080453023 H 0.0 **** 0.06
14443 H 60.87824628192396 116.93485999923858 26.990809082279938 H 0.0 **** 0.06
14444 H 61.33205924730577 115.22477527491272 27.194349168576906 H 0.0 **** 0.06
14445 H 61.988025326086834 116.45700950527439 28.299334565739237 H 0.0 **** 0.06
14446 C 74.37847898834224 80.99664328489717 17.346713765813917 C 0.0 **** -0.24
14447 H 73.74543718349193 80.96969534164424 18.23424014304109 H 0.0 **** 0.06
14448 H 73.75722426991118 81.14059561944453 16.462727663088984 H 0.0 **** 0.06
14449 H 74.92218994969261 80.05555076907868 17.259607860749384 H 0.0 **** 0.06
14450 H 75.08754392315132 81.82005687210557 17.430761951608844 H 0.0 **** 0.06
14451 C 78.08700370005212 116.43323480729083 13.42430077537216 C 0.0 **** -0.24
14452 H 78.66486393988927 116.48909598424754 14.346105595774986 H 0.0 **** 0.06
14453 H 77.56419461859517 117.37672364529368 13.265686031362065 H 0.0 **** 0.06
14454 H 77.36094171109173 115.62361243627097 13.49983717715935 H 0.0 **** 0.06
14455 H 78.75685382440128 116.24358430165557 12.586378611839734 H 0.0 **** 0.06
14456 C 57.62973840011125 100.2390227960542 67.37581601186884 C 0.0 **** -0.24
14457 H 58.13876217508238 99.79774400377681 68.2328550814546 H 0.0 **** 0.06
14458 H 57.25216205288041 101.22463551131452 67.64710511661798 H 0.0 **** 0.06
14459 H 56.79914282123997 99.60007343833058 67.0782193818651 H 0.0 **** 0.06
14460 H 58.33091758422995 100.33319330583475 66.5463795662817 H 0.0 **** 0.06
14461 C 119.09765969154935 108.32592315888866 118.02429595760842 C 0.0 **** -0.24
14462 H 120.03469913550887 107.84868072686203 118.31041629327794 H 0.0 **** 0.06
14463 H 119.11772374834693 108.55630101635307 116.95996494521862 H 0.0 **** 0.06
14464 H 118.97068702365108 109.24645681024566 118.59413003321276 H 0.0 **** 0.06
14465 H 118.26725106747594 107.65134150767568 118.23551694634455 H 0.0 **** 0.06
14466 C 103.23230341907853 4.914062401708421 88.65854385009263 C 0.0 **** -0.24
14467 H 103.97240108770683 5.643501671129627 88.98709963534085 H 0.0 **** 0.06
14468 H 102.84111794210392 4.378315812916497 89.52329504552478 H 0.0 **** 0.06
14469 H 103.69836077624339 4.205925634403258 87.97280553822051 H 0.0 **** 0.06
14470 H 102.4167960354568 5.428387158194823 88.14967264324065 H 0.0 **** 0.06
14471 C 77.43503554125996 96.1825588039502 1.6610140732508007 C 0.0 **** -0.24
14472 H 76.75425978022918 96.99163795987744 1.9270412382965105 H 0.0 **** 0.06
14473 H 76.89009791748668 95.41862931199813 1.105631415677344 H 0.0 **** 0.06
14474 H 77.85232512664794 95.7455351497812 2.5684075259136048 H 0.0 **** 0.06
14475 H 78.24153572387925 96.57525633821808 1.0421876006615758 H 0.0 **** 0.06
14476 C 38.330050384273704 67.66420651879389 75.32170722718806 C 0.0 **** -0.24
14477 H 37.35718083493029 67.67232818467599 75.8124046536721 H 0.0 **** 0.06
14478 H 38.751497231402055 66.65914240331585 75.36767359661692 H 0.0 **** 0.06
14479 H 38.998244631081235 68.3614626763615 75.82646201002714 H 0.0 **** 0.06
14480 H 38.21436779996179 67.96188509233329 74.27940345582923 H 0.0 **** 0.06
14481 C 111.78473616112078 107.77623725694673 83.3615385951295 C 0.0 **** -0.24
14482 H 111.04311841307504 108.46321118575867 83.7717948382589 H 0.0 **** 0.06
14483 H 112.78475082384975 108.13930419495281 83.59730365756207 H 0.0 **** 0.06
14484 H 111.66408895831398 107.7161569694808 82.27994498591403 H 0.0 **** 0.06
14485 H 111.64356348591654 106.78739651489616 83.79812582033284 H 0.0 **** 0.06
14486 C 79.58738828227433 99.74849129779989 18.579167431097034 C 0.0 **** -0.24
14487 H 79.24041145824748 99.91407955835581 17.55922050072752 H 0.0 **** 0.06
14488 H 80.65083335497866 99.98119290781747 18.643624621319844 H 0.0 **** 0.06
14489 H 79.42767215366871 98.70466073260596 18.85146267831223 H 0.0 **** 0.06
14490 H 79.0324660845327 100.39218719729021 19.260862385381415 H 0.0 **** 0.06
14491 C 29.151819778891763 79.04463339289612 30.126674831833725 C 0.0 **** -0.24
14492 H 29.304385285895307 77.97412301094027 29.98978651234279 H 0.0 **** 0.06
14493 H 28.664528200601808 79.22288432934303 31.08516199428243 H 0.0 **** 0.06
14494 H 28.523589405138466 79.42714137808795 29.321791978283727 H 0.0 **** 0.06
14495 H 30.115138846830746 79.55398442596996 30.107569596387634 H 0.0 **** 0.06
14496 C 61.250050482701134 86.10373186288606 8.78634241072703 C 0.0 **** -0.24
14497 H 62.00517834767992 86.37100747156168 8.04650132192154 H 0.0 **** 0.06
14498 H 60.54321174506834 86.92690333405676 8.896745900500264 H 0.0 **** 0.06
14499 H 61.73309197954372 85.90806985732021 9.743483675334176 H 0.0 **** 0.06
14500 H 60.71862915374461 85.21008041759112 8.457332290041734 H 0.0 **** 0.06
14501 C 102.70552166564633 3.534422889584704 55.86929566731368 C 0.0 **** -0.24
14502 H 103.3972918557354 4.2048679678829615 55.360067340657736 H 0.0 **** 0.06
14503 H 102.47568998976709 3.932240298889269 56.85841593967535 H 0.0 **** 0.06
14504 H 103.1631549723509 2.5495332423469392 55.970485370441 H 0.0 **** 0.06
14505 H 101.78695115291467 3.450051332909652 55.28820633865348 H 0.0 **** 0.06
14506 C 66.64460607178222 115.30322677743501 75.72329788186943 C 0.0 **** -0.24
14507 H 66.54628038233784 115.3812668561886 74.63971815049044 H 0.0 **** 0.06
14508 H 66.26504372823246 116.21281904061416 76.18909235077007 H 0.0 **** 0.06
14509 H 67.69580879650556 115.1724248464931 75.98283572707416 H 0.0 **** 0.06
14510 H 66.07290793585668 114.44658986503515 76.07832815301003 H 0.0 **** 0.06
14511 C 80.51932625085357 92.37470051209382 16.191805799297526 C 0.0 **** -0.24
14512 H 80.38584115177486 91.77820027737076 17.09521955898657 H 0.0 **** 0.06
14513 H 81.52234025816438 92.21473477320825 15.796578045285258 H 0.0 **** 0.06
14514 H 80.38655474744147 93.42957128625642 16.430364935911655 H 0.0 **** 0.06
14515 H 79.78192078403723 92.07496934883923 15.447672414766487 H 0.0 **** 0.06
14516 C 36.8683625210493 94.19935864925134 63.862538348271386 C 0.0 **** -0.24
14517 H 36.17650614277631 93.40915530714759 63.56900705043438 H 0.0 **** 0.06
14518 H 36.92461799674297 94.94534346657352 63.068826065182435 H 0.0 **** 0.06
14519 H 37.8572345056645 93.77140405031298 64.0301039874879 H 0.0 **** 0.06
14520 H 36.51479291363593 94.66899024645852 64.77948639898287 H 0.0 **** 0.06
14521 C 34.44095642146958 107.63104259435127 42.32314920008932 C 0.0 **** -0.24
14522 H 35.232780502105996 108.3796344341877 42.29527421952767 H 0.0 **** 0.06
14523 H 33.47546654197157 108.1183230412332 42.18697214314258 H 0.0 **** 0.06
14524 H 34.45807377298125 107.12019307542963 43.285487941320326 H 0.0 **** 0.06
14525 H 34.59860947332252 106.90641578194018 41.52407307914527 H 0.0 **** 0.06
14526 C 106.60951528952171 30.120255986511438 89.38958769966678 C 0.0 **** -0.24
14527 H 106.34723167071724 31.164256978914977 89.21623719327462 H 0.0 **** 0.06
14528 H 105.70080178664608 29.519159223576253 89.42136158123702 H 0.0 **** 0.06
14529 H 107.13853223462124 30.030304077174378 90.33819606909208 H 0.0 **** 0.06
14530 H 107.25071217377814 29.768076777202737 88.58088593247612 H 0.0 **** 0.06
14531 C 93.65995854927226 37.0967677565043 107.28748312785137 C 0.0 **** -0.24
14532 H 93.64492175086392 37.04561178175599 106.19921338261773 H 0.0 **** 0.06
14533 H 92.65280184258174 37.295133498009875 107.65565916552453 H 0.0 **** 0.06
14534 H 94.32630297952574 37.89947129702899 107.6039278729848 H 0.0 **** 0.06
14535 H 94.01457854276242 36.148644052422945 107.6916677746247 H 0.0 **** 0.06
14536 C 51.34084488339329 74.71180769120653 64.8470858603371 C 0.0 **** -0.24
14537 H 51.207909296718576 74.9492846706863 63.79117488211196 H 0.0 **** 0.06
14538 H 50.969786077531865 73.70579138727902 65.04185152678963 H 0.0 **** 0.06
14539 H 50.78660431781079 75.42834901665958 65.45271777382263 H 0.0 **** 0.06
14540 H 52.40025695400523 74.76431366466508 65.09988690372771 H 0.0 **** 0.06
14541 C 94.72817707746276 115.18978579336185 21.26185131188869 C 0.0 **** -0.24
14542 H 95.45662591511962 114.88594768149954 22.014582939333536 H 0.0 **** 0.06
14543 H 94.7731798983609 116.27033250099079 21.129864085197255 H 0.0 **** 0.06
14544 H 93.72827361992722 114.90454733946454 21.588565588348814 H 0.0 **** 0.06
14545 H 94.95633740729059 114.6972659865298 20.316837973595625 H 0.0 **** 0.06
14546 C 95.87530590475859 80.76852371507846 105.54758813654672 C 0.0 **** -0.24
14547 H 94.98859185734352 80.20385490584528 105.2579219249464 H 0.0 **** 0.06
14548 H 96.12054186994123 81.48476554417391 104.76422230850409 H 0.0 **** 0.06
14549 H 96.71155994008015 80.08330040849921 105.68942743275238 H 0.0 **** 0.06
14550 H 95.67898574310621 81.30032087725624 106.47835463670691 H 0.0 **** 0.06
14551 C 2.7434827359812743 75.91414035748451 16.170454464836837 C 0.0 **** -0.24
14552 H 1.9495962418948807 76.33958703336515 15.556145487760205 H 0.0 **** 0.06
14553 H 3.6400816586202325 75.78372976152588 15.564631415385577 H 0.0 **** 0.06
14554 H 2.424041385801047 74.94863761892304 16.56030278145795 H 0.0 **** 0.06
14555 H 2.960416457717969 76.58779244899267 16.999837238207363 H 0.0 **** 0.06
14556 C 25.351281518101615 41.35176102575896 35.20294050462252 C 0.0 **** -0.24
14557 H 25.052062897905728 42.24052694638924 35.75795982888346 H 0.0 **** 0.06
14558 H 25.84208018701804 41.64996596043352 34.276240639861925 H 0.0 **** 0.06
14559 H 24.469210373813496 40.753943381544644 34.97241129533438 H 0.0 **** 0.06
14560 H 26.04211471608619 40.76256427860088 35.806847675258524 H 0.0 **** 0.06
14561 C 24.876703887648574 45.230773200389365 72.26663520528405 C 0.0 **** -0.24
14562 H 25.53931108611468 44.48796908370153 71.8213499836643 H 0.0 **** 0.06
14563 H 23.846930476046765 45.01646114802011 71.9800741906432 H 0.0 **** 0.06
14564 H 25.153934314278814 46.223898267562845 71.911066501596 H 0.0 **** 0.06
14565 H 24.96809204195813 45.194660563571205 73.35235304642717 H 0.0 **** 0.06
14566 C 116.34480010812273 105.29711163141525 35.86478822815242 C 0.0 **** -0.24
14567 H 117.30162232651936 105.26998165444189 36.38661038213121 H 0.0 **** 0.06
14568 H 116.51986389348518 105.33144636127071 34.78961851570472 H 0.0 **** 0.06
14569 H 115.7899232341178 106.18409329579669 36.17186860288896 H 0.0 **** 0.06
14570 H 115.77062793329252 104.40486755046658 36.11253182499459 H 0.0 **** 0.06
14571 C 74.81900709035818 117.25803367475473 89.35290210887726 C 0.0 **** -0.24
14572 H 75.14448488961918 116.220275964642 89.416141322593 H 0.0 **** 0.06
14573 H 74.85897956618439 117.71205952795096 90.3432949013916 H 0.0 **** 0.06
14574 H 73.79592820414746 117.29565500785834 88.97688956346903 H 0.0 **** 0.06
14575 H 75.4757208207923 117.80388783445778 88.67559461989691 H 0.0 **** 0.06
14576 C 33.32670310856045 54.27665473579313 121.19361842960896 C 0.0 **** -0.24
14577 H 33.502881941504825 55.26459853074678 120.7680562014895 H 0.0 **** 0.06
14578 H 32.883887096053684 54.38211959524554 122.18413056173739 H 0.0 **** 0.06
14579 H 34.273428940162404 53.74214568082084 121.27354598679099 H 0.0 **** 0.06
14580 H 32.64785390332014 53.71842109252535 120.54859819117141 H 0.0 **** 0.06
14581 C 70.72233166039939 70.26803812531037 105.68131589059155 C 0.0 **** -0.24
14582 H 70.0843601960004 69.80869266933763 104.92701805230854 H 0.0 **** 0.06
14583 H 70.35412902712596 71.26908468398003 105.90874018341594 H 0.0 **** 0.06
14584 H 71.74299075675196 70.33330706602217 105.30239876779254 H 0.0 **** 0.06
14585 H 70.7099561883889 69.66128300276395 106.58639664014615 H 0.0 **** 0.06
14586 C 62.532136107054185 102.33865751180153 3.9116583860613474 C 0.0 **** -0.24
14587 H 63.22015722449436 102.29656731798244 4.756017602159574 H 0.0 **** 0.06
14588 H 62.77926616479215 101.54874186954262 3.2022761542968823 H 0.0 **** 0.06
14589 H 62.619274714647844 103.30878086547904 3.421266978277032 H 0.0 **** 0.06
14590 H 61.51174963098106 102.20120831264666 4.268037720066616 H 0.0 **** 0.06
14591 C 43.34551939516521 19.10919337483738 53.15939562159974 C 0.0 **** -0.24
14592 H 42.91018369165397 18.81216662678028 52.205050249949466 H 0.0 **** 0.06
14593 H 44.37150635844921 18.745539270556137 53.219674941194285 H 0.0 **** 0.06
14594 H 42.75953088671781 18.681726117439478 53.97346034902884 H 0.0 **** 0.06
14595 H 43.33843365369367 20.196164887450617 53.23853370624704 H 0.0 **** 0.06
14596 C 66.29959938137549 50.65022209123008 106.49206341514369 C 0.0 **** -0.24
14597 H 65.27746734304708 50.32694366864928 106.2982098191342 H 0.0 **** 0.06
14598 H 66.95364359431488 50.280322704016555 105.7010590778695 H 0.0 **** 0.06
14599 H 66.63091201108199 50.253480838114356 107.451956364594 H 0.0 **** 0.06
14600 H 66.33806717227725 51.738998338009466 106.51611770087766 H 0.0 **** 0.06
14601 C 24.52752312796872 57.18980673414899 90.68130248265985 C 0.0 **** -0.24
14602 H 24.194820291877036 58.22119782427836 90.79252433439598 H 0.0 **** 0.06
14603 H 24.372949632557464 56.654930582746005 91.61851413439089 H 0.0 **** 0.06
14604 H 25.58735491172544 57.17619268816651 90.42547554882091 H 0.0 **** 0.06
14605 H 23.95615720186447 56.707541070977726 89.88826974140673 H 0.0 **** 0.06
14606 C 20.904514012676685 110.34213224414063 77.26332963395686 C 0.0 **** -0.24
14607 H 20.268546433048314 109.73285026711827 76.6206999817812 H 0.0 **** 0.06
14608 H 21.68389079352852 110.81181378466718 76.66198505811616 H 0.0 **** 0.06
14609 H 21.362872705775573 109.71181361361934 78.02489829235168 H 0.0 **** 0.06
14610 H 20.30226838003324 111.1128415788672 77.74426979918627 H 0.0 **** 0.06
14611 C 44.08186194432673 0.39183281716913143 14.335372836153514 C 0.0 **** -0.24
14612 H 44.0623974736923 0.8773004234229802 15.311262422302434 H 0.0 **** 0.06
14613 H 45.115970772556096 0.2612487103768899 14.016202250536328 H 0.0 **** 0.06
14614 H 43.55359234620303 1.0123257241718875 13.610883387508714 H 0.0 **** 0.06
14615 H 43.59630486264203 -0.581494338031348 14.402779621499747 H 0.0 **** 0.06
14616 C 113.64052423404212 47.11273379550744 14.708757241377622 C 0.0 **** -0.24
14617 H 114.30607721093764 47.42082154888885 13.902906601260465 H 0.0 **** 0.06
14618 H 114.04509679323127 47.45030882441807 15.663933339692335 H 0.0 **** 0.06
14619 H 113.5545627099126 46.02601021539232 14.713916852978922 H 0.0 **** 0.06
14620 H 112.65597642148765 47.55536725114209 14.555814806604065 H 0.0 **** 0.06
14621 C 82.68861286408884 25.561322494321672 71.80066430235891 C 0.0 **** -0.24
14622 H 82.75312328043285 24.484921044436604 71.64109781798868 H 0.0 **** 0.06
14623 H 83.51790489128788 26.054168193130593 71.2921940092177 H 0.0 **** 0.06
14624 H 82.73945269481345 25.774023264199002 72.86844696599064 H 0.0 **** 0.06
14625 H 81.74522485077344 25.931903946898856 71.40032501681 H 0.0 **** 0.06
14626 C 85.05902893959995 13.842806966104462 65.64560745703906 C 0.0 **** -0.24
14627 H 84.96195122718461 12.76233421239803 65.53338112398751 H 0.0 **** 0.06
14628 H 85.85143451555427 14.063424976812016 66.36129821711538 H 0.0 **** 0.06
14629 H 84.11738095615004 14.256184485732064 66.0074558419727 H 0.0 **** 0.06
14630 H 85.30488123267966 14.287426536393383 64.68144813604101 H 0.0 **** 0.06
14631 C 0.41135038104497745 118.65898552956868 3.8377152838607156 C 0.0 **** -0.24
14632 H -0.02270274346071055 119.37063330115842 3.135456458075664 H 0.0 **** 0.06
14633 H 1.151113751841116 118.04506403230914 3.3229515158932514 H 0.0 **** 0.06
14634 H -0.37449774548880654 118.01978454484549 4.239764950292294 H 0.0 **** 0.06
14635 H 0.8914882612884139 119.20046023996181 4.652688211181818 H 0.0 **** 0.06
14636 C 42.54528118286504 4.942119798432373 49.47659798323224 C 0.0 **** -0.24
14637 H 43.47329775913727 5.280922151588754 49.93695145505808 H 0.0 **** 0.06
14638 H 41.81957116790818 5.756487354022909 49.48185977924396 H 0.0 **** 0.06
14639 H 42.14877560486997 4.098169064275822 50.03970501404564 H 0.0 **** 0.06
14640 H 42.740875126632375 4.635176547278121 48.449571239817146 H 0.0 **** 0.06
14641 C 42.774980434217326 38.855936332392844 79.66286428337673 C 0.0 **** -0.24
14642 H 43.85000204973221 38.69670115379304 79.57663880445989 H 0.0 **** 0.06
14643 H 42.30260481005314 37.946406973952264 80.03362529897066 H 0.0 **** 0.06
14644 H 42.365820814058594 39.10536647496163 78.6841339287688 H 0.0 **** 0.06
14645 H 42.58406289082217 39.67391076020219 80.35631605663104 H 0.0 **** 0.06
14646 C 122.22987166460922 116.92951565783812 91.33663734795562 C 0.0 **** -0.24
14647 H 121.94348971932402 117.96305553999008 91.52918806231219 H 0.0 **** 0.06
14648 H 122.8500818125678 116.56535592857077 92.15667349580639 H 0.0 **** 0.06
14649 H 122.79246420711833 116.877102725984 90.40448411569787 H 0.0 **** 0.06
14650 H 121.33423659763503 116.3137141638988 91.25604911714032 H 0.0 **** 0.06
14651 C 47.18095981861839 11.651606289289873 32.43803362220734 C 0.0 **** -0.24
14652 H 46.20918215614111 11.202482221504596 32.63818048177134 H 0.0 **** 0.06
14653 H 47.884826889394006 11.355378673125813 33.215774242764695 H 0.0 **** 0.06
14654 H 47.084709614078704 12.7377300368737 32.42896263763015 H 0.0 **** 0.06
14655 H 47.545802102467746 11.311380391632156 31.468729958285195 H 0.0 **** 0.06
14656 C 35.307046897423476 51.11190941029534 122.42525589287804 C 0.0 **** -0.24
14657 H 36.33268683355371 51.45902170295375 122.29862285322984 H 0.0 **** 0.06
14658 H 34.96959002514012 51.339881896810866 123.43654643430038 H 0.0 **** 0.06
14659 H 35.26684747497083 50.03385392818887 122.26341455281522 H 0.0 **** 0.06
14660 H 34.66201901539006 51.6123910007024 121.70445687345865 H 0.0 **** 0.06
14661 C 78.06017439489463 88.15215899911232 69.60493046832266 C 0.0 **** -0.24
14662 H 77.13861273598536 88.27825867626677 69.03718133645538 H 0.0 **** 0.06
14663 H 78.79295577668472 88.89009497359595 69.27656764752908 H 0.0 **** 0.06
14664 H 78.455001019908 87.14909786169164 69.4387994828877 H 0.0 **** 0.06
14665 H 77.85514435571747 88.29078953977134 70.66627271431435 H 0.0 **** 0.06
14666 C 101.80246892394959 112.22421894963945 29.91813372827363 C 0.0 **** -0.24
14667 H 101.011333748541 112.89674924063756 30.250976513495402 H 0.0 **** 0.06
14668 H 102.76069098060219 112.57237289717415 30.305617312867923 H 0.0 **** 0.06
14669 H 101.83313910598031 112.21071044462728 28.82914845350706 H 0.0 **** 0.06
14670 H 101.60335378532764 111.21915767934382 30.28956489870501 H 0.0 **** 0.06
14671 C 9.65488690320268 99.47473376830754 94.9155616056479 C 0.0 **** -0.24
14672 H 9.35234660875713 100.11052955412666 94.08333012743586 H 0.0 **** 0.06
14673 H 10.326541430372345 98.69801179738928 94.55271288736861 H 0.0 **** 0.06
14674 H 8.77160368021336 99.0147775819344 95.35983769202633 H 0.0 **** 0.06
14675 H 10.166043479286998 100.07783484609885 95.66630670432414 H 0.0 **** 0.06
14676 C 63.521751488440906 8.828290170921804 69.52354004711344 C 0.0 **** -0.24
14677 H 63.4389354892127 9.176948386825984 68.49479080051373 H 0.0 **** 0.06
14678 H 62.541490778043446 8.867444251078894 70.00039550029055 H 0.0 **** 0.06
14679 H 64.21675189026217 9.46734361101187 70.0688897617938 H 0.0 **** 0.06
14680 H 63.88904450526345 7.802306783544282 69.5313522279285 H 0.0 **** 0.06
14681 C 58.52453682822647 81.86819053828305 120.23616603449945 C 0.0 **** -0.24
14682 H 57.88994408433712 82.45489390586255 120.90129715331695 H 0.0 **** 0.06
14683 H 58.64805535616384 80.86517576434468 120.6434737991384 H 0.0 **** 0.06
14684 H 59.499046234908974 82.34748514198668 120.14753657743431 H 0.0 **** 0.06
14685 H 58.05936170030597 81.80765105435995 119.25231940261733 H 0.0 **** 0.06
14686 C 114.01962819134141 31.94656510992735 14.89323909504418 C 0.0 **** -0.24
14687 H 114.38747394404871 32.7113388312614 14.208577986409466 H 0.0 **** 0.06
14688 H 113.83439793881416 32.392284868655054 15.870716357201161 H 0.0 **** 0.06
14689 H 114.7641290896532 31.15610123571605 14.9892100150945 H 0.0 **** 0.06
14690 H 113.09257665020868 31.52638944100073 14.503464846328484 H 0.0 **** 0.06
14691 C 95.028384801382 81.91745515279763 11.471145523304955 C 0.0 **** -0.24
14692 H 94.3762331218854 81.96206688823605 12.343447715619448 H 0.0 **** 0.06
14693 H 94.70383152892288 82.6561784954553 10.737504472926446 H 0.0 **** 0.06
14694 H 94.97908794140443 80.92173577451504 11.03108207640507 H 0.0 **** 0.06
14695 H 96.05362051580155 82.13122885932162 11.77412355760488 H 0.0 **** 0.06
14696 C 85.26668070310473 55.5225977320319 36.74282330683894 C 0.0 **** -0.24
14697 H 84.76780086425202 56.48618865114676 36.63551710629713 H 0.0 **** 0.06
14698 H 86.32358071646405 55.63260968550489 36.49952333987042 H 0.0 **** 0.06
14699 H 84.81009280261407 54.80021144630288 36.065105255808305 H 0.0 **** 0.06
14700 H 85.16365124220201 55.173427652253 37.76964376217285 H 0.0 **** 0.06
14701 C 102.05396486601165 102.79116944714247 70.42419957876652 C 0.0 **** -0.24
14702 H 102.91147214277728 103.46287251983958 70.44645536749508 H 0.0 **** 0.06
14703 H 101.22951415196525 103.27158483209254 69.89723353319692 H 0.0 **** 0.06
14704 H 101.74794189172744 102.55944455228598 71.44403515519812 H 0.0 **** 0.06
14705 H 102.32693127757673 101.87077588435213 69.90907425917604 H 0.0 **** 0.06
14706 C 31.821339143904353 9.473007048333443 55.8583553891147 C 0.0 **** -0.24
14707 H 32.510290222312 8.726320271750865 56.2537557210562 H 0.0 **** 0.06
14708 H 30.936865295487088 9.523243098947006 56.4928484471209 H 0.0 **** 0.06
14709 H 31.527886049757043 9.197409037992372 54.84542590146726 H 0.0 **** 0.06
14710 H 32.31189454953899 10.446871082860412 55.84184982629554 H 0.0 **** 0.06
14711 C 76.54580434616955 86.18545926570118 31.751038259975672 C 0.0 **** -0.24
14712 H 76.68342762626679 87.13445107744525 32.26902039097813 H 0.0 **** 0.06
14713 H 75.5016332518014 85.88056600784944 31.824250175334015 H 0.0 **** 0.06
14714 H 77.17963937024416 85.42660324866188 32.210677118104826 H 0.0 **** 0.06
14715 H 76.8185501692509 86.30139041493061 30.702108418312093 H 0.0 **** 0.06
14716 C 95.842490719387 103.47629739662273 94.85917799545169 C 0.0 **** -0.24
14717 H 94.89903696236539 103.25000962036287 94.3618440931321 H 0.0 **** 0.06
14718 H 96.54105621607033 102.6536439100187 94.70419201454911 H 0.0 **** 0.06
14719 H 95.66703473694315 103.6074273903354 95.92745525954248 H 0.0 **** 0.06
14720 H 96.26140994360344 104.39260193874966 94.44452423635983 H 0.0 **** 0.06
14721 C 46.69272163922168 45.4865517651167 84.7684073218679 C 0.0 **** -0.24
14722 H 46.02340706915031 45.59753299124395 85.62145380151634 H 0.0 **** 0.06
14723 H 46.24901436829383 45.9650695459427 83.89420378106422 H 0.0 **** 0.06
14724 H 46.8472377560643 44.42700534854137 84.56330901272378 H 0.0 **** 0.06
14725 H 47.64984496129265 45.956839561135894 84.99448580186561 H 0.0 **** 0.06
14726 C 112.2922225207293 25.876102503307564 106.08935681691173 C 0.0 **** -0.24
14727 H 112.44644975209661 26.294031253314508 107.08428880623245 H 0.0 **** 0.06
14728 H 111.56983991387602 25.061843693100876 106.14541109881657 H 0.0 **** 0.06
14729 H 113.23870140340657 25.496600314924542 105.70415563628939 H 0.0 **** 0.06
14730 H 111.91385705056999 26.65315457730309 105.42480072267116 H 0.0 **** 0.06
14731 C 94.3441302554431 96.30062543956791 51.19018926764264 C 0.0 **** -0.24
14732 H 93.74033419538057 95.58275429338175 50.63489252409771 H 0.0 **** 0.06
14733 H 93.73159738666362 97.1619653111866 51.453628350399065 H 0.0 **** 0.06
14734 H 95.18249626246626 96.62503490557543 50.572497474386054 H 0.0 **** 0.06
14735 H 94.72306892500274 95.83139801467757 52.09794210836853 H 0.0 **** 0.06
14736 C 68.76431228592452 32.37180346616418 114.76008904331088 C 0.0 **** -0.24
14737 H 67.95430238340214 32.62560028706196 115.4438757499099 H 0.0 **** 0.06
14738 H 69.33692028034781 31.53962025800905 115.16838093244178 H 0.0 **** 0.06
14739 H 69.41626384987194 33.23521093386415 114.63416551221677 H 0.0 **** 0.06
14740 H 68.34713565459063 32.08782804701377 113.79385627693303 H 0.0 **** 0.06
14741 C 105.66837138177414 88.76936815783179 115.04196742542541 C 0.0 **** -0.24
14742 H 105.79596428096309 89.65598325287354 115.66326274133016 H 0.0 **** 0.06
14743 H 104.65859631885758 88.37818367604032 115.17104965170842 H 0.0 **** 0.06
14744 H 106.39368232233033 88.01107028317543 115.33962593850529 H 0.0 **** 0.06
14745 H 105.82679284103975 89.03285277991384 113.99621524387331 H 0.0 **** 0.06
14746 C 101.810188386145 23.928001928304468 29.000287430891433 C 0.0 **** -0.24
14747 H 101.51699075958271 24.97570825418083 29.06284704902015 H 0.0 **** 0.06
14748 H 101.92397405707754 23.6448110854312 27.95386978076914 H 0.0 **** 0.06
14749 H 101.04366150794246 23.307967287041862 29.46402621483145 H 0.0 **** 0.06
14750 H 102.75699063915206 23.784308878335338 29.5212029218589 H 0.0 **** 0.06
14751 C 52.36354926852853 117.32792705242508 74.68255993193509 C 0.0 **** -0.24
14752 H 53.26267202724309 116.82910000362784 75.04663830802463 H 0.0 **** 0.06
14753 H 52.406773541123506 117.40388084237236 73.59588158223869 H 0.0 **** 0.06
14754 H 52.30171119251065 118.32695407609981 75.1144467276257 H 0.0 **** 0.06
14755 H 51.48565447908776 116.75038343744819 74.97216179977539 H 0.0 **** 0.06
14756 C 77.93762734924235 95.01815719511637 10.393512187323935 C 0.0 **** -0.24
14757 H 78.60205051278527 95.04950396924812 11.256994303678326 H 0.0 **** 0.06
14758 H 77.66628213242146 93.98335214674677 10.182487394446127 H 0.0 **** 0.06
14759 H 78.44511249266927 95.4450417334836 9.528576619128415 H 0.0 **** 0.06
14760 H 77.03711329335206 95.59464492145898 10.607401215274763 H 0.0 **** 0.06
14761 C 118.77413257700945 17.96828138271104 22.722296963930916 C 0.0 **** -0.24
14762 H 119.8479127976027 17.911794467666425 22.544585463883514 H 0.0 **** 0.06
14763 H 118.59099566743839 18.173074521055185 23.77755845998073 H 0.0 **** 0.06
14764 H 118.31034474331875 17.02022470910333 22.449853355188885 H 0.0 **** 0.06
14765 H 118.34727709967814 18.768031833019222 22.117190576670367 H 0.0 **** 0.06
14766 C 24.10674926204058 61.12740527669404 121.21038718992392 C 0.0 **** -0.24
14767 H 23.353831812521605 61.88232289816548 121.43325427234981 H 0.0 **** 0.06
14768 H 23.850429338779634 60.1972335447603 121.71798230545942 H 0.0 **** 0.06
14769 H 25.081220287951908 61.473268100324525 121.55331019022083 H 0.0 **** 0.06
14770 H 24.140883362532065 60.9559975441118 120.13418023096415 H 0.0 **** 0.06
14771 C 49.00362024403689 17.853477751719595 18.750998734239488 C 0.0 **** -0.24
14772 H 48.90454852977157 18.85371686684087 19.172527654157477 H 0.0 **** 0.06
14773 H 48.509742500692035 17.133973619840788 19.404341468000155 H 0.0 **** 0.06
14774 H 50.059853241021685 17.599162463653926 18.66323932393408 H 0.0 **** 0.06
14775 H 48.540626793739705 17.82729387014571 17.765577764723275 H 0.0 **** 0.06
14776 C 8.295574772095904 9.734074027400297 85.71099514286257 C 0.0 **** -0.24
14777 H 8.315204767853004 8.830776163128576 85.1009756509795 H 0.0 **** 0.06
14778 H 7.272126926888717 10.102503925069954 85.7819532598867 H 0.0 **** 0.06
14779 H 8.925487211241006 10.495255557543203 85.25161721902339 H 0.0 **** 0.06
14780 H 8.670198267643968 9.504881875708875 86.70898881300764 H 0.0 **** 0.06
14781 C 17.841751815310857 81.2050104543209 78.61400196611402 C 0.0 **** -0.24
14782 H 18.428930400925346 81.83728372574109 77.94807108160896 H 0.0 **** 0.06
14783 H 18.397799556750737 80.29227577105945 78.8305417901035 H 0.0 **** 0.06
14784 H 16.89754391611927 80.95079589931257 78.1327977366372 H 0.0 **** 0.06
14785 H 17.643608069731286 81.73964695626069 79.54230952635865 H 0.0 **** 0.06
14786 C 45.81561365610864 27.49054868933274 95.02371838482455 C 0.0 **** -0.24
14787 H 46.51364899910769 27.0990518889012 94.28447824597654 H 0.0 **** 0.06
14788 H 45.25268916084323 26.666834570433906 95.46338101105238 H 0.0 **** 0.06
14789 H 45.126481739384516 28.184597093666483 94.54048008387647 H 0.0 **** 0.06
14790 H 46.36855683419644 28.012559150816884 95.80450455016444 H 0.0 **** 0.06
14791 C 66.05998575334559 40.04838095064099 86.37832153471422 C 0.0 **** -0.24
14792 H 66.21301860966685 40.37511167405145 87.40676263417791 H 0.0 **** 0.06
14793 H 65.00397157590214 39.82908027420518 86.22078614818238 H 0.0 **** 0.06
14794 H 66.65074838998711 39.151774998251824 86.190253962137 H 0.0 **** 0.06
14795 H 66.37319295703253 40.83945574668283 85.69612939937196 H 0.0 **** 0.06
14796 C 91.38270139736477 1.3462773747920522 36.10700397745214 C 0.0 **** -0.24
14797 H 91.57554924229046 1.9180669848824152 35.199307179758335 H 0.0 **** 0.06
14798 H 90.34877082652386 1.4977304989405695 36.41908846003801 H 0.0 **** 0.06
14799 H 92.05454132863267 1.6817551224782363 36.89719251720405 H 0.0 **** 0.06
14800 H 91.55193484349431 0.2872243068810576 35.91148469669639 H 0.0 **** 0.06
14801 C 36.931126437420325 71.5528342241243 120.12461691231924 C 0.0 **** -0.24
14802 H 37.201447117916246 70.49691267479636 120.09097764670636 H 0.0 **** 0.06
14803 H 37.738867757775196 72.11980784674131 120.58855554808055 H 0.0 **** 0.06
14804 H 36.01881155664827 71.67581266305842 120.70777122987722 H 0.0 **** 0.06
14805 H 36.76668657914867 71.9170420653453 119.11072969688192 H 0.0 **** 0.06
14806 C 63.80519530703407 74.98172499309098 14.670666874783478 C 0.0 **** -0.24
14807 H 63.52461033542471 74.68362863935113 15.680918215780139 H 0.0 **** 0.06
14808 H 63.61638038498063 74.15651949113806 13.983591939698272 H 0.0 **** 0.06
14809 H 64.86397458544076 75.23866186864907 14.648373855866282 H 0.0 **** 0.06
14810 H 63.2144237156171 75.8477258452244 14.370747509763248 H 0.0 **** 0.06
14811 C 85.08298448779621 22.49603673847389 8.952614370042141 C 0.0 **** -0.24
14812 H 84.85314461887685 23.279989894917378 9.673804483734898 H 0.0 **** 0.06
14813 H 85.22784763571067 21.55140818666557 9.477421698116359 H 0.0 **** 0.06
14814 H 85.99431880991327 22.756271786842177 8.413678719389111 H 0.0 **** 0.06
14815 H 84.25860226770908 22.398285230509487 8.24646303300392 H 0.0 **** 0.06
14816 C 96.20712781104157 7.131157425455996 87.5903176869532 C 0.0 **** -0.24
14817 H 96.57574597114271 7.973452876838849 87.0052611703955 H 0.0 **** 0.06
14818 H 95.3596013453242 6.675616664718319 87.07709970592634 H 0.0 **** 0.06
14819 H 95.89162193864911 7.482087132534588 88.57316688540544 H 0.0 **** 0.06
14820 H 97.00195621981061 6.39393298723553 87.70447138809163 H 0.0 **** 0.06
14821 C 50.40644531155564 36.027752513028474 59.72110273793165 C 0.0 **** -0.24
14822 H 51.30416209402418 36.645743616492354 59.71016226573497 H 0.0 **** 0.06
14823 H 49.55160699473285 36.63516495101935 60.01860184221017 H 0.0 **** 0.06
14824 H 50.53721164211041 35.21074534251525 60.430941170087785 H 0.0 **** 0.06
14825 H 50.234371330484464 35.61998044991765 58.72432759096527 H 0.0 **** 0.06
14826 C 58.2042498352659 2.072281078206359 2.062511279925701 C 0.0 **** -0.24
14827 H 58.03791549795022 1.1225244903387193 2.570214348451259 H 0.0 **** 0.06
14828 H 59.181273922610785 2.4678353531095354 2.3420661726012213 H 0.0 **** 0.06
14829 H 57.428533133110506 2.7806981366282457 2.354233804484352 H 0.0 **** 0.06
14830 H 58.16914758331711 1.9196455066351064 0.9842305677948531 H 0.0 **** 0.06
14831 C 21.333078430276373 39.783646568374536 52.62334156352 C 0.0 **** -0.24
14832 H 21.52099993025334 40.442243173377534 53.470872158953114 H 0.0 **** 0.06
14833 H 22.121117629654805 39.91312464628639 51.88059742782576 H 0.0 **** 0.06
14834 H 20.369020143299878 40.032486661087745 52.1779535914967 H 0.0 **** 0.06
14835 H 21.319048797628994 38.74857628825242 52.96290708776331 H 0.0 **** 0.06
14836 C 67.50906229244939 25.592203586026727 17.607166212660076 C 0.0 **** -0.24
14837 H 67.96630705661826 25.92854828113167 18.537587401522757 H 0.0 **** 0.06
14838 H 67.15065765465147 26.455933997135247 17.045661880944067 H 0.0 **** 0.06
14839 H 66.67162550456388 24.93171075599841 17.831507391501987 H 0.0 **** 0.06
14840 H 68.24820199870504 25.055003211017123 17.0137293382692 H 0.0 **** 0.06
14841 C 7.994670727233 8.699219959783704 17.45431451780989 C 0.0 **** -0.24
14842 H 8.904339720405886 9.267065118208166 17.25714867902414 H 0.0 **** 0.06
14843 H 8.102578495910592 8.154972843778467 18.392171160130204 H 0.0 **** 0.06
14844 H 7.824220689519706 7.9933992729674515 16.641313855080114 H 0.0 **** 0.06
14845 H 7.148309687890276 9.382286529244368 17.52470037191283 H 0.0 **** 0.06
14846 C 63.4011854492573 60.2334621578269 46.55358133928314 C 0.0 **** -0.24
14847 H 62.6094551388546 60.94535820798516 46.78452980854263 H 0.0 **** 0.06
14848 H 64.33225655215176 60.562279681035854 47.0162181509302 H 0.0 **** 0.06
14849 H 63.53266359290396 60.17407878258904 45.47329701268852 H 0.0 **** 0.06
14850 H 63.13038652149788 59.251185830047554 46.93995712963428 H 0.0 **** 0.06
14851 C 57.953319876531964 21.53161040200189 7.3658364665127465 C 0.0 **** -0.24
14852 H 58.71292777150725 22.295098933240126 7.1998479050404285 H 0.0 **** 0.06
14853 H 58.27016517851524 20.59748129310222 6.90109563545974 H 0.0 **** 0.06
14854 H 57.009902129492474 21.855584185354985 6.924900932972832 H 0.0 **** 0.06
14855 H 57.82044733017537 21.379487243144098 8.436787697675157 H 0.0 **** 0.06
14856 C 54.14400959620224 109.48576753975988 82.88547309209522 C 0.0 **** -0.24
14857 H 53.071683569439614 109.322917103966 82.99541752645146 H 0.0 **** 0.06
14858 H 54.31793628352557 110.2857983428317 82.16674137415126 H 0.0 **** 0.06
14859 H 54.614650579661514 108.56887191459128 82.53128305661275 H 0.0 **** 0.06
14860 H 54.56983290424421 109.76294010304792 83.85039747893802 H 0.0 **** 0.06
14861 C 13.749148974134357 85.57207146030424 107.80952928354452 C 0.0 **** -0.24
14862 H 12.984809352916358 86.34813247694478 107.85720954738986 H 0.0 **** 0.06
14863 H 14.056742430985281 85.42856306471828 106.77327459160449 H 0.0 **** 0.06
14864 H 13.344468659572215 84.63887196918085 108.20106430386184 H 0.0 **** 0.06
14865 H 14.60982031173151 85.8733021667964 108.4062704426637 H 0.0 **** 0.06
14866 C 93.79265801967011 48.60569680833521 28.972953266858042 C 0.0 **** -0.24
14867 H 93.58204859790976 49.01193683808441 29.962478336560935 H 0.0 **** 0.06
14868 H 94.75122418634342 48.98903076986409 28.62037956040996 H 0.0 **** 0.06
14869 H 93.00486413194153 48.90550664519046 28.282195019538733 H 0.0 **** 0.06
14870 H 93.83336080261947 47.51878096687523 29.027837255485906 H 0.0 **** 0.06
14871 C 59.952064621195916 31.238078135960933 21.07292027919084 C 0.0 **** -0.24
14872 H 59.24219364483537 31.73075049467269 21.73787915954472 H 0.0 **** 0.06
14873 H 59.46650751475079 31.01967833063614 20.12131952207261 H 0.0 **** 0.06
14874 H 60.29268087777996 30.308332418758226 21.529644100088717 H 0.0 **** 0.06
14875 H 60.80571110034475 31.893927300883178 20.90406338867075 H 0.0 **** 0.06
14876 C 22.509156922122514 93.96527732481735 2.2072864530497753 C 0.0 **** -0.24
14877 H 23.274475173494267 94.66054433830635 1.8629205712087895 H 0.0 **** 0.06
14878 H 22.87898972701177 93.41756473487919 3.0746121101114596 H 0.0 **** 0.06
14879 H 22.270469763273695 93.26290510034227 1.4083053148799252 H 0.0 **** 0.06
14880 H 21.611809918397682 94.51999185460807 2.482850089032425 H 0.0 **** 0.06
14881 C 81.23227323708898 111.24504551836998 37.56782592924549 C 0.0 **** -0.24
14882 H 81.76756536629736 112.11178952422416 37.18147474797587 H 0.0 **** 0.06
14883 H 80.54244192609087 111.5634129288131 38.34995835471568 H 0.0 **** 0.06
14884 H 81.94634235635638 110.53194215509996 37.98033537353962 H 0.0 **** 0.06
14885 H 80.67274329961134 110.7730374653427 36.75953524075072 H 0.0 **** 0.06
14886 C 95.55430395094214 110.44514876805721 26.275632100721907 C 0.0 **** -0.24
14887 H 96.07973273197476 110.98628518571536 25.488790249833983 H 0.0 **** 0.06
14888 H 95.07918300868516 109.56024409760892 25.852317870660215 H 0.0 **** 0.06
14889 H 94.79467109814732 111.09104130228775 26.715955723067168 H 0.0 **** 0.06
14890 H 96.26535666468777 110.1430486593307 27.045343578654126 H 0.0 **** 0.06
14891 C 27.11040520379654 86.10354569665975 71.43918631078029 C 0.0 **** -0.24
14892 H 26.038162815166913 86.00559238498997 71.26857401685322 H 0.0 **** 0.06
14893 H 27.652266757846057 85.68043743023532 70.59359033395896 H 0.0 **** 0.06
14894 H 27.383764246585855 85.57176671408936 72.35020170085696 H 0.0 **** 0.06
14895 H 27.36613001694161 87.15805448580633 71.54364765988254 H 0.0 **** 0.06
14896 C 26.867004363893194 50.188395836420455 28.226312381916834 C 0.0 **** -0.24
14897 H 26.128434695681683 49.648574528306476 27.634322612228566 H 0.0 **** 0.06
14898 H 27.102232712182257 51.134830825247306 27.738139629145316 H 0.0 **** 0.06
14899 H 27.77265403807837 49.58805433849527 28.311022859942376 H 0.0 **** 0.06
14900 H 26.46509873307828 50.38183087661827 29.22089715989415 H 0.0 **** 0.06
14901 C 13.220019719060701 87.08003184089131 66.25658258329773 C 0.0 **** -0.24
14902 H 12.499679835606912 87.80848378482511 65.88317209209927 H 0.0 **** 0.06
14903 H 12.896347672394825 86.71599501679844 67.23153268970572 H 0.0 **** 0.06
14904 H 14.1979366340816 87.5512698175973 66.35039278956066 H 0.0 **** 0.06
14905 H 13.284482511375813 86.24416232379855 65.55971972208857 H 0.0 **** 0.06
14906 C 38.86262618608859 47.56219344437774 54.10334333733914 C 0.0 **** -0.24
14907 H 38.81819854198724 48.28088151717242 54.92216249614307 H 0.0 **** 0.06
14908 H 37.852997403681314 47.23492204665155 53.85409986275951 H 0.0 **** 0.06
14909 H 39.45957723819703 46.7026058124749 54.407100873243394 H 0.0 **** 0.06
14910 H 39.31832715410221 48.03255875632257 53.23180260290846 H 0.0 **** 0.06
14911 C 64.72371726803382 88.25411605140258 94.96994500553649 C 0.0 **** -0.24
14912 H 63.73176976329548 87.95022172588932 94.63537883288541 H 0.0 **** 0.06
14913 H 64.65204324894239 88.69622435180341 95.96448877256469 H 0.0 **** 0.06
14914 H 65.13222630524595 88.98756487578689 94.27468510894624 H 0.0 **** 0.06
14915 H 65.37766019334114 87.38260855105028 95.00600712818508 H 0.0 **** 0.06
14916 C 25.11878727140754 109.27446699359771 103.12018387433943 C 0.0 **** -0.24
14917 H 24.885391649130554 110.27083011739009 102.74286408876185 H 0.0 **** 0.06
14918 H 24.204997673868 108.7975658558216 103.47418809262183 H 0.0 **** 0.06
14919 H 25.82961707057349 109.35560301341997 103.94262784306562 H 0.0 **** 0.06
14920 H 25.554405349834752 108.67638511206496 102.31928742269781 H 0.0 **** 0.06
14921 C 77.44105837259747 83.82130051187295 40.087704440443986 C 0.0 **** -0.24
14922 H 77.58138223283242 82.91418831318202 39.49992148863163 H 0.0 **** 0.06
14923 H 78.38461604297243 84.10110967676155 40.55476525790937 H 0.0 **** 0.06
14924 H 76.69207392128214 83.6415067204573 40.8587301181347 H 0.0 **** 0.06
14925 H 77.1044708278522 84.62707744358451 39.43530311049193 H 0.0 **** 0.06
14926 C 113.43945709786834 40.84447375546773 90.75315437082006 C 0.0 **** -0.24
14927 H 112.41268529274657 40.66885625284786 90.43470469884491 H 0.0 **** 0.06
14928 H 114.11921579635964 40.60862177245025 89.93435214508224 H 0.0 **** 0.06
14929 H 113.66720853411215 40.21022381894531 91.60975954244867 H 0.0 **** 0.06
14930 H 113.5581800255066 41.890869477809275 91.03492024195305 H 0.0 **** 0.06
14931 C 121.98668568891092 27.681062000720125 37.832540059814505 C 0.0 **** -0.24
14932 H 121.42318101690228 28.54286438961804 37.4743148763811 H 0.0 **** 0.06
14933 H 123.01088548033043 27.98343228279763 38.05349071443064 H 0.0 **** 0.06
14934 H 121.99306418262066 26.90689638219144 37.06555308899584 H 0.0 **** 0.06
14935 H 121.5195455322646 27.292261471594728 38.73753639600278 H 0.0 **** 0.06
14936 C 95.40240972620003 67.48817326919658 4.467486265224693 C 0.0 **** -0.24
14937 H 95.0698746770413 67.49219526760433 5.505222435818837 H 0.0 **** 0.06
14938 H 95.89728330390165 68.43277675528819 4.240676754881065 H 0.0 **** 0.06
14939 H 94.5402145685517 67.36246188704709 3.8108429727603834 H 0.0 **** 0.06
14940 H 96.09956915424308 66.66572440541802 4.311618846894476 H 0.0 **** 0.06
14941 C 43.87321529718439 115.63810000605628 104.621759645774 C 0.0 **** -0.24
14942 H 43.21386732827628 115.05294739155767 105.2634580549022 H 0.0 **** 0.06
14943 H 43.75304279580192 116.69747008495324 104.84726065379124 H 0.0 **** 0.06
14944 H 43.61900876571775 115.45702600394253 103.57766082691063 H 0.0 **** 0.06
14945 H 44.90781872973719 115.34330496820763 104.80024160908354 H 0.0 **** 0.06
14946 C 53.42140838507811 90.77870365729552 37.854130083447615 C 0.0 **** -0.24
14947 H 53.84843403080097 90.75389173742533 36.85110583301682 H 0.0 **** 0.06
14948 H 53.901643224855036 91.56768365966798 38.43410961837978 H 0.0 **** 0.06
14949 H 53.58563073070454 89.8175537039393 38.341958899542135 H 0.0 **** 0.06
14950 H 52.35151006793977 90.97506183190984 37.78902898851277 H 0.0 **** 0.06
14951 C 35.461075249993996 119.7508121624387 54.84851168830246 C 0.0 **** -0.24
14952 H 34.740443418829045 120.56850724921046 54.843255230628635 H 0.0 **** 0.06
14953 H 36.44980449948201 120.1368098791059 54.599995338165535 H 0.0 **** 0.06
14954 H 35.1668907950895 119.00217868563402 54.11281163984733 H 0.0 **** 0.06
14955 H 35.48612857020089 119.29558786408592 55.83893550519533 H 0.0 **** 0.06
14956 C 91.67213259937444 9.124161051168926 102.67305386150659 C 0.0 **** -0.24
14957 H 91.34304144149962 9.184421571448837 103.7104808774165 H 0.0 **** 0.06
14958 H 92.73881302409185 8.897053889836968 102.64401154343082 H 0.0 **** 0.06
14959 H 91.48949140914075 10.078297510236354 102.17888189427748 H 0.0 **** 0.06
14960 H 91.11914610386316 8.337615351413746 102.16098565615778 H 0.0 **** 0.06
14961 C 87.0960951753838 120.09021349389842 16.22072313689042 C 0.0 **** -0.24
14962 H 88.06081660623033 119.91624349094364 16.696205069990945 H 0.0 **** 0.06
14963 H 86.53812520173872 120.8319363549663 16.791203434361737 H 0.0 **** 0.06
14964 H 86.5334212096497 119.15648082697963 16.189811696499007 H 0.0 **** 0.06
14965 H 87.25220381069582 120.4534589605525 15.20445200627249 H 0.0 **** 0.06
14966 C 12.644194442150948 55.21415575250916 99.22400424139678 C 0.0 **** -0.24
14967 H 13.035425149238336 54.27477638378778 98.83366458022198 H 0.0 **** 0.06
14968 H 11.575527298173782 55.27681997531133 99.01737439990279 H 0.0 **** 0.06
14969 H 13.157256255788184 56.04805942657032 98.74515629380284 H 0.0 **** 0.06
14970 H 12.809802971488637 55.2563813389078 100.30018819585587 H 0.0 **** 0.06
14971 C 90.65768370474214 93.76016177051363 107.8936698680848 C 0.0 **** -0.24
14972 H 91.14691215152132 94.20231752175678 108.76147453394552 H 0.0 **** 0.06
14973 H 89.60298025303953 94.03591821187521 107.89048199361034 H 0.0 **** 0.06
14974 H 90.75010887171189 92.67524133977273 107.9379456642641 H 0.0 **** 0.06
14975 H 91.13215804887344 94.12870513556541 106.98350665017247 H 0.0 **** 0.06
14976 C 39.31861444351944 64.6880032601137 67.1430945138319 C 0.0 **** -0.24
14977 H 38.72829934464727 65.41254972859852 67.7043766612644 H 0.0 **** 0.06
14978 H 39.926397289390366 65.20940345976524 66.40338038546386 H 0.0 **** 0.06
14979 H 38.65115554179124 63.98928702045382 66.63780903899098 H 0.0 **** 0.06
14980 H 39.967785128357605 64.14040035440775 67.8263782121494 H 0.0 **** 0.06
14981 C 76.26068022578494 25.01899254468637 90.29244065563435 C 0.0 **** -0.24
14982 H 77.03681922374122 24.25896485857794 90.19766538365565 H 0.0 **** 0.06
14983 H 75.48180406127256 24.836427560838644 89.55124827489695 H 0.0 **** 0.06
14984 H 76.69496467810771 26.00460134143036 90.12870802942325 H 0.0 **** 0.06
14985 H 75.82824547256374 24.973695554323882 91.29224289948607 H 0.0 **** 0.06
14986 C 105.44172211880368 53.85006834446844 103.31521846988585 C 0.0 **** -0.24
14987 H 105.89708993844897 52.93105170730527 103.68600111852047 H 0.0 **** 0.06
14988 H 104.50820743762546 53.61243863615235 102.80633781327975 H 0.0 **** 0.06
14989 H 106.12335644587822 54.336154530681796 102.61654755638236 H 0.0 **** 0.06
14990 H 105.24060290645713 54.518678508234245 104.15275514847019 H 0.0 **** 0.06
14991 C 102.76552844499949 24.77817201531198 49.830064539751675 C 0.0 **** -0.24
14992 H 103.6877010147698 24.447549551838648 49.3520805737368 H 0.0 **** 0.06
14993 H 103.00498359716417 25.320943673226253 50.74453558459615 H 0.0 **** 0.06
14994 H 102.15095852172479 23.911269586654953 50.071767025796504 H 0.0 **** 0.06
14995 H 102.21922194699752 25.433504392581796 49.150425731063706 H 0.0 **** 0.06
14996 C 83.97982152961714 40.005973673632866 97.5419033656037 C 0.0 **** -0.24
14997 H 83.093077290033 39.37946468388162 97.6313415985625 H 0.0 **** 0.06
14998 H 84.80850514851457 39.54102947887094 98.07733082703609 H 0.0 **** 0.06
14999 H 83.77609183168113 40.98794770138352 97.96925259635904 H 0.0 **** 0.06
15000 H 84.24241026447646 40.11604834633414 96.48959928922201 H 0.0 **** 0.06
15001 C 19.747954044129813 83.28545464800018 72.41865539493833 C 0.0 **** -0.24
15002 H 19.676192778370705 84.12941631746034 73.10567448016377 H 0.0 **** 0.06
15003 H 18.746533072522652 82.94863514097253 72.15197065970165 H 0.0 **** 0.06
15004 H 20.2899636908341 82.47099775295689 72.90065613406759 H 0.0 **** 0.06
15005 H 20.28022923403887 83.59311559239654 71.5190888637957 H 0.0 **** 0.06
15006 C 23.13706495085799 46.46896481122283 4.163518779558032 C 0.0 **** -0.24
15007 H 24.10268377491323 46.21145202184607 3.7288331968960033 H 0.0 **** 0.06
15008 H 22.4210292718939 46.67002461338603 3.3651303226623313 H 0.0 **** 0.06
15009 H 23.244252776417625 47.357271197019486 4.786365218977011 H 0.0 **** 0.06
15010 H 22.778693045447568 45.63884184179716 4.772183347986402 H 0.0 **** 0.06
15011 C 86.85109867156933 79.7017679025287 95.63959246382856 C 0.0 **** -0.24
15012 H 87.35411533640462 79.36706245551957 94.73223440789948 H 0.0 **** 0.06
15013 H 87.58865152257283 80.09441264648407 96.33924023347907 H 0.0 **** 0.06
15014 H 86.3284973828485 78.86165204006355 96.0954491105872 H 0.0 **** 0.06
15015 H 86.13407151040863 80.4837310553531 95.38942889532785 H 0.0 **** 0.06
15016 C 75.52762215157938 65.06710295510138 77.11075080644989 C 0.0 **** -0.24
15017 H 75.33302608266555 64.15685826119952 77.67698577260683 H 0.0 **** 0.06
15018 H 76.22819818111603 65.6951846489373 77.6619801597848 H 0.0 **** 0.06
15019 H 74.59350863923567 65.60916822055486 76.96120362270744 H 0.0 **** 0.06
15020 H 75.95611107985107 64.80841600160127 76.14220372161637 H 0.0 **** 0.06
15021 C 79.96067205076037 51.546743507906484 9.562240456780387 C 0.0 **** -0.24
15022 H 79.56723100621647 52.30050237347902 10.244320987652372 H 0.0 **** 0.06
15023 H 80.06005607897774 51.97570199835283 8.564986439998222 H 0.0 **** 0.06
15024 H 79.27713573985918 50.69869128012621 9.526065345955203 H 0.0 **** 0.06
15025 H 80.93603514824221 51.21292158546058 9.914150670151912 H 0.0 **** 0.06
15026 C 17.99640787582075 115.6954764939261 62.640347102797385 C 0.0 **** -0.24
15027 H 17.77489938128093 116.71061881311518 62.3108380881278 H 0.0 **** 0.06
15028 H 17.094211974065985 115.24308784444347 63.05382657742552 H 0.0 **** 0.06
15029 H 18.77232469043912 115.72330260620042 63.404827897886115 H 0.0 **** 0.06
15030 H 18.342102186427127 115.10612334447536 61.79155832317124 H 0.0 **** 0.06
15031 C 14.160505307801486 57.30068604366923 116.24617886797935 C 0.0 **** -0.24
15032 H 13.10780557844015 57.319924481580586 116.52611497697586 H 0.0 **** 0.06
15033 H 14.266481930519205 56.83687904323034 115.26456017813712 H 0.0 **** 0.06
15034 H 14.72187061872404 56.725870217596366 116.98251701219888 H 0.0 **** 0.06
15035 H 14.544845352848938 58.320071587577644 116.20953220929277 H 0.0 **** 0.06
15036 C 72.93058398788222 27.590700673297818 57.187692429470815 C 0.0 **** -0.24
15037 H 72.33754472797642 28.466671969445486 57.44779966566409 H 0.0 **** 0.06
15038 H 72.82181615301064 27.3824141037594 56.12257202274628 H 0.0 **** 0.06
15039 H 72.58471137926745 26.732404732854945 57.76341834281516 H 0.0 **** 0.06
15040 H 73.97945273010359 27.782651779698256 57.41530899561906 H 0.0 **** 0.06
15041 C 58.44314966469534 61.72591243446382 41.76412420753123 C 0.0 **** -0.24
15042 H 58.23568779496563 61.975598332927746 42.804741650716046 H 0.0 **** 0.06
15043 H 59.31865402695604 61.07903688859116 41.71396213170687 H 0.0 **** 0.06
15044 H 58.634410953471644 62.64102535062901 41.20266391232957 H 0.0 **** 0.06
15045 H 57.58319091427603 61.20993970082452 41.33600475317265 H 0.0 **** 0.06
15046 C 110.32079162659056 76.74406495225031 35.61945009987812 C 0.0 **** -0.24
15047 H 111.10386477815632 76.41764993122081 36.30399214835997 H 0.0 **** 0.06
15048 H 110.06623277318317 77.78369678575879 35.82850903635671 H 0.0 **** 0.06
15049 H 109.43720192834871 76.12046795081847 35.753028232858824 H 0.0 **** 0.06
15050 H 110.67564157309693 76.65605929049497 34.592857377482744 H 0.0 **** 0.06
15051 C 96.12141363408006 19.8917238521001 83.03874891263649 C 0.0 **** -0.24
15052 H 95.97326895264328 20.90282378108445 82.659023701389 H 0.0 **** 0.06
15053 H 95.3294874108023 19.243216984495096 82.66314424441839 H 0.0 **** 0.06
15054 H 96.09292484631248 19.905259050577687 84.12854997135929 H 0.0 **** 0.06
15055 H 97.0887201662812 19.516234526252564 82.70442423923743 H 0.0 **** 0.06
15056 C 111.51654430623249 117.45097787695346 68.08361839699737 C 0.0 **** -0.24
15057 H 110.55764628380717 117.84684850997402 67.74769399175281 H 0.0 **** 0.06
15058 H 112.30428376276295 117.78508351175455 67.40772480177483 H 0.0 **** 0.06
15059 H 111.47794990458328 116.36134360951388 68.08806856636357 H 0.0 **** 0.06
15060 H 111.72528442013773 117.81160409193885 69.0911780557116 H 0.0 **** 0.06
15061 C 23.824665732205943 17.714645486358563 0.31039034273617006 C 0.0 **** -0.24
15062 H 24.69382839364033 18.35559676574904 0.45704925346299774 H 0.0 **** 0.06
15063 H 23.780076168560072 16.97413868394466 1.1092392630826566 H 0.0 **** 0.06
15064 H 23.905057984821013 17.20806547546769 -0.6511323455633686 H 0.0 **** 0.06
15065 H 22.918862814672877 18.321323992586343 0.3264661756339251 H 0.0 **** 0.06
15066 C 14.088408391147638 104.35266005427536 90.06623489157926 C 0.0 **** -0.24
15067 H 14.859336027472551 104.78957874672125 89.43125553531613 H 0.0 **** 0.06
15068 H 13.14286135172756 104.33066044666958 89.52497256188241 H 0.0 **** 0.06
15069 H 13.97687883573505 104.95542515599462 90.96812267769633 H 0.0 **** 0.06
15070 H 14.3760538164275 103.33755504376347 90.34025873221572 H 0.0 **** 0.06
15071 C 102.251351168616 122.41860949886426 56.611774924419194 C 0.0 **** -0.24
15072 H 101.82395973414992 121.58327330014002 57.1658733732977 H 0.0 **** 0.06
15073 H 101.46876756809888 123.14284898496302 56.38460928045541 H 0.0 **** 0.06
15074 H 102.68848675420713 122.05226378501624 55.68189346360239 H 0.0 **** 0.06
15075 H 103.0260977409011 122.89567094814785 57.213234260803375 H 0.0 **** 0.06
15076 C 117.40546098905963 54.87959879912673 46.72163923952118 C 0.0 **** -0.24
15077 H 118.16275179066955 55.484188272929224 46.22155485191195 H 0.0 **** 0.06
15078 H 116.41412839041527 55.23272483854928 46.43903746365905 H 0.0 **** 0.06
15079 H 117.52821912173188 54.9649726409475 47.80128449189641 H 0.0 **** 0.06
15080 H 117.5197326047996 53.836722001719544 46.42451441958022 H 0.0 **** 0.06
15081 C 26.737312900099028 10.79945054631509 106.29387658120541 C 0.0 **** -0.24
15082 H 25.760589408182163 10.46611809029033 106.6457243713046 H 0.0 **** 0.06
15083 H 27.350774896660525 11.087841387339072 107.14752067382838 H 0.0 **** 0.06
15084 H 26.61218513584643 11.655002776668802 105.63076609979998 H 0.0 **** 0.06
15085 H 27.223987870778664 9.988578946404807 105.75322533436355 H 0.0 **** 0.06
15086 C 53.13385815795982 97.79076126415484 81.89924073698356 C 0.0 **** -0.24
15087 H 52.779169182882725 97.15274144750288 82.70848640681461 H 0.0 **** 0.06
15088 H 54.04116216021856 98.30758562195541 82.21504331390742 H 0.0 **** 0.06
15089 H 52.36567623173943 98.5224709649278 81.65014529251056 H 0.0 **** 0.06
15090 H 53.35059644697941 97.17946024500253 81.02338247795689 H 0.0 **** 0.06
15091 C 32.78109662597124 78.59975724580426 75.35072454196964 C 0.0 **** -0.24
15092 H 31.8487944451145 78.91318136841866 75.82165251191446 H 0.0 **** 0.06
15093 H 32.713050022766346 78.75321173810795 74.27391792757174 H 0.0 **** 0.06
15094 H 32.95404245624439 77.543055642924 75.55784447128278 H 0.0 **** 0.06
15095 H 33.606227302129156 79.18807396943453 75.75073562410586 H 0.0 **** 0.06
15096 C 62.81736122694025 36.525706533735104 36.946089153961424 C 0.0 **** -0.24
15097 H 62.8052009638846 37.4145759290999 36.31572304840398 H 0.0 **** 0.06
15098 H 61.82997273244996 36.3780907203917 37.384094505561706 H 0.0 **** 0.06
15099 H 63.55204613968721 36.653593292828475 37.740945854549096 H 0.0 **** 0.06
15100 H 63.081225183407525 35.65658145689747 36.343586425849054 H 0.0 **** 0.06
15101 C 54.55334266798701 62.45001453449576 68.08594038270297 C 0.0 **** -0.24
15102 H 54.0459519808619 61.61301607630315 68.56510254023254 H 0.0 **** 0.06
15103 H 54.943428160477026 62.13256561511819 67.11867173019749 H 0.0 **** 0.06
15104 H 55.37503884492952 62.78785700617728 68.71708059028543 H 0.0 **** 0.06
15105 H 53.846669248040655 63.26766869585527 67.94126653524108 H 0.0 **** 0.06
15106 C 110.22401601927683 98.21283189722288 30.60128326372741 C 0.0 **** -0.24
15107 H 110.55472126988536 99.1687601050998 30.19616429072253 H 0.0 **** 0.06
15108 H 110.89947064016187 97.42409010115631 30.26656145269925 H 0.0 **** 0.06
15109 H 109.21403096502286 98.00005487796733 30.25145296432582 H 0.0 **** 0.06
15110 H 110.22988738786933 98.25814222898765 31.69009711475733 H 0.0 **** 0.06
15111 C 86.15092041847504 63.19258823206829 23.923215082873753 C 0.0 **** -0.24
15112 H 86.70862640212374 63.77845678335348 23.192272382837587 H 0.0 **** 0.06
15113 H 85.69619713616521 62.334269740891415 23.429689830397933 H 0.0 **** 0.06
15114 H 85.37169914552396 63.81225959300332 24.367238454207268 H 0.0 **** 0.06
15115 H 86.82906705373841 62.84674662378302 24.704334752070054 H 0.0 **** 0.06
15116 C 24.389605990001776 79.23050346867981 35.126178231071606 C 0.0 **** -0.24
15117 H 23.56468690652388 79.53250200487926 35.771376271895804 H 0.0 **** 0.06
15118 H 24.005687444056996 78.62767699116245 34.30368028437189 H 0.0 **** 0.06
15119 H 25.105928638919075 78.64482097745483 35.70321728318808 H 0.0 **** 0.06
15120 H 24.883354086735594 80.11750368615373 34.728239032996385 H 0.0 **** 0.06
15121 C 28.217584313460492 109.55645262896599 14.176125119747311 C 0.0 **** -0.24
15122 H 28.401535401746116 109.38918827055352 13.115114879293856 H 0.0 **** 0.06
15123 H 28.700365557371867 108.77068637532645 14.757488874955342 H 0.0 **** 0.06
15124 H 27.143731567018058 109.54052006165642 14.365264279507457 H 0.0 **** 0.06
15125 H 28.622529578017613 110.52593091455708 14.466571883540041 H 0.0 **** 0.06
15126 C 21.81603869063389 53.52942378965446 25.685904119202945 C 0.0 **** -0.24
15127 H 21.483428417181727 52.947251885495916 26.544750646403514 H 0.0 **** 0.06
15128 H 20.988373717236954 54.13772825262146 25.317709005138752 H 0.0 **** 0.06
15129 H 22.14985719437891 52.85549573438345 24.897516993489177 H 0.0 **** 0.06
15130 H 22.639612213942428 54.178511607884786 25.98350752650805 H 0.0 **** 0.06
15131 C 62.62898373676131 54.84274716987352 41.01598985602584 C 0.0 **** -0.24
15132 H 62.11669183656892 55.041946247492206 41.957479042964735 H 0.0 **** 0.06
15133 H 61.918496901499 54.92578543065366 40.19260943423387 H 0.0 **** 0.06
15134 H 63.04611123108418 53.83557262903088 41.0352839985011 H 0.0 **** 0.06
15135 H 63.43150046253277 55.56727561896241 40.87867800210776 H 0.0 **** 0.06
15136 C 86.51848028693442 14.080964078964382 9.61726574458351 C 0.0 **** -0.24
15137 H 86.0777773961888 13.311083964209775 10.250882124507068 H 0.0 **** 0.06
15138 H 86.59584343825594 15.01261397744334 10.178947694826256 H 0.0 **** 0.06
15139 H 85.88737025010658 14.235564055283998 8.74152197215319 H 0.0 **** 0.06
15140 H 87.51163915253397 13.764903340743611 9.298823941172277 H 0.0 **** 0.06
15141 C 108.12880682854728 11.148432034318887 45.51290226679063 C 0.0 **** -0.24
15142 H 108.23119097138908 12.181335063275469 45.8463478762952 H 0.0 **** 0.06
15143 H 107.57551896153478 11.12394665211366 44.573504485114114 H 0.0 **** 0.06
15144 H 107.59015928942358 10.574996748741796 46.26709714411129 H 0.0 **** 0.06
15145 H 109.11732309231593 10.715086508460786 45.364159792916325 H 0.0 **** 0.06
15146 C 91.07181186849934 95.19009575919168 1.439529270358861 C 0.0 **** -0.24
15147 H 91.17610868003445 95.79696654819065 0.5393791583532277 H 0.0 **** 0.06
15148 H 91.97109060337544 95.28756592844758 2.0485551389351144 H 0.0 **** 0.06
15149 H 90.93338937143903 94.14610899486814 1.1592848239902196 H 0.0 **** 0.06
15150 H 90.20762555546037 95.53118318996147 2.0082545351534975 H 0.0 **** 0.06
15151 C 25.94056597352558 71.38070795551047 20.305988763728422 C 0.0 **** -0.24
15152 H 25.221759712260905 71.70466580259531 21.057646211433763 H 0.0 **** 0.06
15153 H 26.923930175780995 71.78659725812656 20.545946921033163 H 0.0 **** 0.06
15154 H 25.627553882442825 71.74009850359985 19.325355278871243 H 0.0 **** 0.06
15155 H 25.989020123616996 70.29147025771996 20.295006643575334 H 0.0 **** 0.06
15156 C 16.10176589123708 6.016855426121531 104.61893508882991 C 0.0 **** -0.24
15157 H 15.53454018562158 6.885671003419866 104.28637897437582 H 0.0 **** 0.06
15158 H 17.168074724916437 6.207374117667609 104.49073087628614 H 0.0 **** 0.06
15159 H 15.81437809002307 5.147436779387288 104.02853646160645 H 0.0 **** 0.06
15160 H 15.890662344416029 5.827285663103105 105.67197297906304 H 0.0 **** 0.06
15161 C 107.40022393733827 63.22690568661005 23.425585379783243 C 0.0 **** -0.24
15162 H 107.55281050951046 64.27393819287283 23.165840624131363 H 0.0 **** 0.06
15163 H 106.77604629848256 63.1616218629741 24.317162893974157 H 0.0 **** 0.06
15164 H 108.36413200394435 62.7563416992879 23.620910584028778 H 0.0 **** 0.06
15165 H 106.90730342374832 62.715061596513124 22.597979058409862 H 0.0 **** 0.06
15166 C 69.75753951494482 63.02412332676272 17.608513871173017 C 0.0 **** -0.24
15167 H 69.91513094714776 63.85921700258848 18.29061326814619 H 0.0 **** 0.06
15168 H 70.48273300185969 62.23917658970049 17.821863644373337 H 0.0 **** 0.06
15169 H 69.88293795097283 63.36540816459774 16.5814457316078 H 0.0 **** 0.06
15170 H 68.74833735324228 62.63336374479718 17.7408471926492 H 0.0 **** 0.06
15171 C 117.20558723090694 110.38248293391558 68.61728286073128 C 0.0 **** -0.24
15172 H 117.71930213530098 109.86200971401206 69.4260812290972 H 0.0 **** 0.06
15173 H 116.86013386122997 109.65620940603787 67.88089986586843 H 0.0 **** 0.06
15174 H 117.89176938466785 111.08419099656464 68.14335041632526 H 0.0 **** 0.06
15175 H 116.35130993413695 110.9260820423462 69.02050293223081 H 0.0 **** 0.06
15176 C 121.55802078525835 106.23305621879345 40.11339221460392 C 0.0 **** -0.24
15177 H 122.13292168835017 105.30762769593235 40.15220134161129 H 0.0 **** 0.06
15178 H 121.0322852789667 106.3729761637126 41.058034330910004 H 0.0 **** 0.06
15179 H 120.83506917618934 106.1772733702563 39.30006489571093 H 0.0 **** 0.06
15180 H 122.23238474272148 107.07218828713238 39.94320778211491 H 0.0 **** 0.06
15181 C 104.75056106164027 10.981702100082199 33.7939263915477 C 0.0 **** -0.24
15182 H 104.81148952919114 11.849067366228635 33.13604920928637 H 0.0 **** 0.06
15183 H 105.12884003241408 10.103595797859779 33.271746919567136 H 0.0 **** 0.06
15184 H 103.71251970826142 10.81626195950216 34.080090268783465 H 0.0 **** 0.06
15185 H 105.3492587984091 11.160766105070728 34.686999865653405 H 0.0 **** 0.06
15186 C 93.65189364912027 112.12580314192164 32.48829785523728 C 0.0 **** -0.24
15187 H 93.18033106573762 113.0567111278778 32.17363744542226 H 0.0 **** 0.06
15188 H 94.72930079415295 112.19610211237236 32.34110753850703 H 0.0 **** 0.06
15189 H 93.25689241244106 111.3004308510867 31.896180704140306 H 0.0 **** 0.06
15190 H 93.43990992353068 111.94977429228095 33.54307929928805 H 0.0 **** 0.06
15191 C 46.24536671963881 4.613537870636691 99.64739042416673 C 0.0 **** -0.24
15192 H 47.12542893035908 5.241680308151103 99.51068748519646 H 0.0 **** 0.06
15193 H 45.600853213951666 4.6953328332928095 98.77168836242896 H 0.0 **** 0.06
15194 H 45.69951741600556 4.940634967328549 100.53298413371621 H 0.0 **** 0.06
15195 H 46.555294947260734 3.576348597158727 99.77511683264905 H 0.0 **** 0.06
15196 C 34.95894954554734 80.34734206672348 5.565083753066517 C 0.0 **** -0.24
15197 H 35.71489825442613 80.17012349669457 6.330241429517258 H 0.0 **** 0.06
15198 H 35.14394805204789 79.69328013610553 4.7126550443470165 H 0.0 **** 0.06
15199 H 35.00799882767399 81.38829265664523 5.242420961125049 H 0.0 **** 0.06
15200 H 33.970537710268935 80.14075199490634 5.975072404609136 H 0.0 **** 0.06
15201 C 87.93875215789959 93.06279156296799 69.99630811242571 C 0.0 **** -0.24
15202 H 87.6129949398636 93.3272167724273 71.00264638008332 H 0.0 **** 0.06
15203 H 87.53949075402048 92.0840893799639 69.73157531193146 H 0.0 **** 0.06
15204 H 89.02764162125331 93.03239397608505 69.9645618506143 H 0.0 **** 0.06
15205 H 87.5750269048896 93.80809437854137 69.28920291229934 H 0.0 **** 0.06
15206 C 120.60182260779838 18.823436555072963 0.8544543858714633 C 0.0 **** -0.24
15207 H 121.20676204930237 19.640983464550395 0.45968411397076636 H 0.0 **** 0.06
15208 H 119.57681359713175 19.16774678506767 0.9967329750249121 H 0.0 **** 0.06
15209 H 121.01274857644837 18.49715350913731 1.8100674741181564 H 0.0 **** 0.06
15210 H 120.61261973903007 17.99154750915576 0.15050400119972096 H 0.0 **** 0.06
15211 C 46.596688759832624 65.0363106878726 28.766827580749492 C 0.0 **** -0.24
15212 H 46.63849317804309 64.50199547624518 27.817417341086156 H 0.0 **** 0.06
15213 H 45.84423675085478 64.57756115598818 29.409192769086147 H 0.0 **** 0.06
15214 H 46.33372345766684 66.07799152848534 28.585796243283937 H 0.0 **** 0.06
15215 H 47.56982176526407 64.98606712003067 29.254555811588446 H 0.0 **** 0.06
15216 C 68.80630799872227 79.00754776038704 118.43891600594306 C 0.0 **** -0.24
15217 H 68.80478475225905 79.83813610733176 119.14463889549377 H 0.0 **** 0.06
15218 H 68.7702641119854 79.396955033961 117.42019028750713 H 0.0 **** 0.06
15219 H 67.93432705347811 78.37764126619274 118.61712434672556 H 0.0 **** 0.06
15220 H 69.71362698697536 78.41943143827154 118.57144334170249 H 0.0 **** 0.06
15221 C 73.2037321299687 32.97664845685469 103.05842223615201 C 0.0 **** -0.24
15222 H 72.24274642985637 32.50098396198803 102.8624709562092 H 0.0 **** 0.06
15223 H 73.7156400842733 32.44557069783873 103.86057917747985 H 0.0 **** 0.06
15224 H 73.04273388126526 34.01356151059875 103.35235926840457 H 0.0 **** 0.06
15225 H 73.81395297163235 32.945895199609794 102.15501758374921 H 0.0 **** 0.06
15226 C 58.445813166111044 28.437751242517606 63.0144073150631 C 0.0 **** -0.24
15227 H 58.96619833074539 28.803754115275012 62.128821995760795 H 0.0 **** 0.06
15228 H 57.384517494059516 28.67349484947067 62.93614765519201 H 0.0 **** 0.06
15229 H 58.860734485598265 28.91613794924001 63.9025214287098 H 0.0 **** 0.06
15230 H 58.575202441496295 27.358230012343654 63.08988208922593 H 0.0 **** 0.06
15231 C 50.67731329221626 84.73172781005871 20.77936109854852 C 0.0 **** -0.24
15232 H 51.194628961526405 85.60340150953999 21.181338261953158 H 0.0 **** 0.06
15233 H 50.22349422228537 84.17052160742722 21.59735137068799 H 0.0 **** 0.06
15234 H 51.38991173420195 84.0966565067645 20.25396698325892 H 0.0 **** 0.06
15235 H 49.90050969789807 85.05790456825562 20.087791849439554 H 0.0 **** 0.06
15236 C 110.6287745896758 27.47574260484741 34.2765694569205 C 0.0 **** -0.24
15237 H 110.92806185654777 28.512478343218618 34.12371903796968 H 0.0 **** 0.06
15238 H 110.30622617540402 27.0466230428282 33.327856613873564 H 0.0 **** 0.06
15239 H 109.80750947861424 27.437199920359234 34.992663196671714 H 0.0 **** 0.06
15240 H 111.4753517056222 26.907972439237625 34.66488434443883 H 0.0 **** 0.06
15241 C 49.60316510496352 39.876612329010186 36.59648684118838 C 0.0 **** -0.24
15242 H 48.945373865605816 39.595915489345 37.41921894432738 H 0.0 **** 0.06
15243 H 49.79892792498137 39.00421868388896 35.97412738017982 H 0.0 **** 0.06
15244 H 50.54336293853902 40.25558460520581 36.99667324353646 H 0.0 **** 0.06
15245 H 49.12437855318788 40.65175896518578 35.997528328061776 H 0.0 **** 0.06
15246 C 118.41765177030899 64.78278320953083 89.74451947460835 C 0.0 **** -0.24
15247 H 118.40692259100089 63.79799908688147 90.21194675488493 H 0.0 **** 0.06
15248 H 118.89164979370713 64.71478938859684 88.76485121655674 H 0.0 **** 0.06
15249 H 118.97792437643221 65.47684464565972 90.3714145917258 H 0.0 **** 0.06
15250 H 117.39456327478533 65.14133294737638 89.62898950673838 H 0.0 **** 0.06
15251 C 89.12848210427751 60.59363911112402 87.84266016144184 C 0.0 **** -0.24
15252 H 88.66762804549421 61.573078544342735 87.71290621833435 H 0.0 **** 0.06
15253 H 89.516245656324 60.50692007641274 88.85756230203089 H 0.0 **** 0.06
15254 H 89.94528689427358 60.47989421325926 87.13018058845452 H 0.0 **** 0.06
15255 H 88.38354931844194 59.816704246090666 87.66939875388775 H 0.0 **** 0.06
15256 C 107.44267910833742 48.67233002945218 25.282121607368595 C 0.0 **** -0.24
15257 H 107.51831129611514 49.63610083387053 25.785487010848897 H 0.0 **** 0.06
15258 H 106.49219870874799 48.20251543984398 25.5380697985035 H 0.0 **** 0.06
15259 H 108.26372087994446 48.03028050216608 25.601802646659223 H 0.0 **** 0.06
15260 H 107.4958558130881 48.82026632546922 24.20388778536602 H 0.0 **** 0.06
15261 C 91.86948275155441 113.87437914165693 39.2986679893192 C 0.0 **** -0.24
15262 H 91.81086999243274 114.21735137458865 40.33184258443785 H 0.0 **** 0.06
15263 H 92.73370401259109 113.2191576297881 39.18265679271562 H 0.0 **** 0.06
15264 H 91.97306030153564 114.73451856733695 38.63618171474289 H 0.0 **** 0.06
15265 H 90.96143071391057 113.32775310507421 39.04544562154254 H 0.0 **** 0.06
15266 C 45.96538487242228 106.7792501952147 103.55448559087574 C 0.0 **** -0.24
15267 H 46.97830180949475 106.58097249205929 103.20592241401005 H 0.0 **** 0.06
15268 H 45.75153081362427 107.8445762977519 103.46013016270155 H 0.0 **** 0.06
15269 H 45.875644980756675 106.48124221533487 104.5988308845524 H 0.0 **** 0.06
15270 H 45.25644315315333 106.21191410349977 102.95208415885759 H 0.0 **** 0.06
15271 C 23.558275645482894 100.15160203035651 85.10405685209778 C 0.0 **** -0.24
15272 H 24.332138911775083 100.1684822546315 84.33612138919241 H 0.0 **** 0.06
15273 H 23.287589190118986 101.17455539922156 85.36868766654601 H 0.0 **** 0.06
15274 H 23.93454281736078 99.63528398952155 85.98733134971943 H 0.0 **** 0.06
15275 H 22.680053167215632 99.63011051501064 84.72344549297705 H 0.0 **** 0.06
15276 C 120.99736284445845 17.184729051164823 71.30061560111363 C 0.0 **** -0.24
15277 H 120.60525745110567 16.330030850839137 71.85214483404786 H 0.0 **** 0.06
15278 H 121.9948824696566 16.948124662334237 70.92676504365727 H 0.0 **** 0.06
15279 H 121.05202727388956 18.04946068533752 71.96104429828534 H 0.0 **** 0.06
15280 H 120.33889195285428 17.40948258277234 70.46217299283387 H 0.0 **** 0.06
15281 C 28.7339842514225 86.73640212762001 119.23332108641154 C 0.0 **** -0.24
15282 H 29.21476898645915 86.19750847675766 118.4176019331228 H 0.0 **** 0.06
15283 H 27.7797697164726 86.26434604369103 119.46900063331455 H 0.0 **** 0.06
15284 H 28.56462280805755 87.77111327896432 118.93517234918261 H 0.0 **** 0.06
15285 H 29.37880576325881 86.71269841206515 120.1124448221839 H 0.0 **** 0.06
15286 C 40.22566526954392 115.9145212488209 7.532605704974657 C 0.0 **** -0.24
15287 H 39.38256527868196 116.57717191189406 7.336071590576012 H 0.0 **** 0.06
15288 H 41.08594787573072 116.50451516069356 7.84789782656847 H 0.0 **** 0.06
15289 H 40.47425760428342 115.36367294216706 6.624696456860647 H 0.0 **** 0.06
15290 H 39.957909139329075 115.21074791211586 8.322165077003149 H 0.0 **** 0.06
15291 C 48.62018304802973 2.8054051555036494 78.62137957123599 C 0.0 **** -0.24
15292 H 48.055317567950624 1.911368802914808 78.35875040911003 H 0.0 **** 0.06
15293 H 48.87939213360161 2.773803444739542 79.67992486764888 H 0.0 **** 0.06
15294 H 48.0146541528124 3.689473708418859 78.42093332491675 H 0.0 **** 0.06
15295 H 49.5320672234956 2.84692230094538 78.02403644028414 H 0.0 **** 0.06
15296 C 109.40029448048426 113.28239296802832 96.36276668624564 C 0.0 **** -0.24
15297 H 109.32838977002913 113.60963538895035 95.32532306636199 H 0.0 **** 0.06
15298 H 108.8203239026399 112.36907280335959 96.49579127434191 H 0.0 **** 0.06
15299 H 109.00846428641887 114.06136629505144 97.01667552864507 H 0.0 **** 0.06
15300 H 110.44374279539113 113.09116426747636 96.61060181983831 H 0.0 **** 0.06
15301 C 71.06604922346395 2.1344300826747826 102.10631865271989 C 0.0 **** -0.24
15302 H 72.08730055082054 2.0705574983969655 102.48143880521096 H 0.0 **** 0.06
15303 H 70.39787290711678 1.5984980359688734 102.78207711905046 H 0.0 **** 0.06
15304 H 71.01497721605637 1.6879961845749563 101.11400042222377 H 0.0 **** 0.06
15305 H 70.76373546329216 3.1801574070671563 102.05102058142458 H 0.0 **** 0.06
15306 C 29.57900468105766 1.3841441160159889 119.47561681393745 C 0.0 **** -0.24
15307 H 29.752283173878133 1.6713436701295876 120.51281598462108 H 0.0 **** 0.06
15308 H 29.897894572407246 0.35256370117772917 119.32631438215566 H 0.0 **** 0.06
15309 H 30.147395917891387 2.039966363436747 118.81702692292518 H 0.0 **** 0.06
15310 H 28.51655204283845 1.472407272516108 119.24746299224586 H 0.0 **** 0.06
15311 C 16.25182575880973 2.504983113887617 81.45986459655347 C 0.0 **** -0.24
15312 H 16.96503198343487 1.682581238805195 81.40308279174761 H 0.0 **** 0.06
15313 H 16.55233896788036 3.294570845586396 80.77047994002331 H 0.0 **** 0.06
15314 H 16.229964154378976 2.8980201011346587 82.47598028364467 H 0.0 **** 0.06
15315 H 15.259603339467233 2.1442536132074963 81.18913407149071 H 0.0 **** 0.06
15316 C 77.5088543923342 93.66539367043862 82.92146756260308 C 0.0 **** -0.24
15317 H 78.03633461145591 92.85958308010706 83.43249601017271 H 0.0 **** 0.06
15318 H 76.62492740697749 93.26367736526905 82.42519518457323 H 0.0 **** 0.06
15319 H 78.16859014301292 94.11778959615566 82.18053987485644 H 0.0 **** 0.06
15320 H 77.20685170887387 94.42039384627725 83.64706608915162 H 0.0 **** 0.06
15321 C 78.55070466428069 51.6176384250719 99.95791964149487 C 0.0 **** -0.24
15322 H 78.57297820190124 50.531314442510165 100.048717574384 H 0.0 **** 0.06
15323 H 78.6107113236929 52.06602806957471 100.94958140518855 H 0.0 **** 0.06
15324 H 77.62112542481927 51.92199337154324 99.47712797919382 H 0.0 **** 0.06
15325 H 79.3966682941005 51.94942441880727 99.35622561450157 H 0.0 **** 0.06
15326 C 6.979465167949204 64.68226044953187 65.69516350911525 C 0.0 **** -0.24
15327 H 7.202918525028718 63.740077221368146 65.19505005047822 H 0.0 **** 0.06
15328 H 7.58709676726685 65.4768569602357 65.26127366597112 H 0.0 **** 0.06
15329 H 7.205404209632206 64.59081822177947 66.75813861026367 H 0.0 **** 0.06
15330 H 5.923542212880619 64.91959883307354 65.56758096836359 H 0.0 **** 0.06
15331 C 5.960180636547538 87.85251267738451 32.853176099476485 C 0.0 **** -0.24
15332 H 5.263533028055718 87.95718750021729 32.021385607330956 H 0.0 **** 0.06
15333 H 6.529647500139131 86.93062980557411 32.73668330833746 H 0.0 **** 0.06
15334 H 5.403730699281258 87.82094787867746 33.789846400775446 H 0.0 **** 0.06
15335 H 6.642901578348212 88.70267977991924 32.86526719532651 H 0.0 **** 0.06
15336 C 70.33459141882403 50.63300525393896 27.234443563091702 C 0.0 **** -0.24
15337 H 70.01334634931641 49.72199180355446 26.72975929187652 H 0.0 **** 0.06
15338 H 70.0407054215201 51.49956362055195 26.641338344261612 H 0.0 **** 0.06
15339 H 71.41852082365992 50.62113906825476 27.349262442334464 H 0.0 **** 0.06
15340 H 69.86579308079973 50.68932652339447 28.217414173894554 H 0.0 **** 0.06
15341 C 18.595490680461324 73.58591643969069 36.038818631338145 C 0.0 **** -0.24
15342 H 17.92894160553331 73.40914317623529 36.88347460983794 H 0.0 **** 0.06
15343 H 18.01824148406348 73.58636914795758 35.11406822993715 H 0.0 **** 0.06
15344 H 19.347033842986008 72.79744843742674 35.997706367781596 H 0.0 **** 0.06
15345 H 19.087068893549457 74.55144030247232 36.1599907645151 H 0.0 **** 0.06
15346 C 106.82834971115702 88.23157991272672 67.47808416962195 C 0.0 **** -0.24
15347 H 106.82680127586303 88.51607013018616 68.5302452983615 H 0.0 **** 0.06
15348 H 107.55864293371027 87.43857790492092 67.31720299719572 H 0.0 **** 0.06
15349 H 107.09035642541363 89.09673760955465 66.86864689159836 H 0.0 **** 0.06
15350 H 105.83656296951341 87.87690855869059 67.19606915784755 H 0.0 **** 0.06
15351 C 35.925104369254484 37.60321242704771 52.28365625491455 C 0.0 **** -0.24
15352 H 35.697916418112385 37.574418213920126 51.21799042717328 H 0.0 **** 0.06
15353 H 34.99962974343087 37.71691861949188 52.849277875685914 H 0.0 **** 0.06
15354 H 36.584687991641076 38.44502616741866 52.49176954145378 H 0.0 **** 0.06
15355 H 36.417083566156265 36.67488862706554 52.57447499247553 H 0.0 **** 0.06
15356 C 69.35524006864472 13.840723684921329 97.97248450702665 C 0.0 **** -0.24
15357 H 68.86152589647253 12.916822921769153 97.66932631547749 H 0.0 **** 0.06
15358 H 69.80610819888113 14.313533360523536 97.09984364060116 H 0.0 **** 0.06
15359 H 70.13012603609928 13.614738819157594 98.70511996648386 H 0.0 **** 0.06
15360 H 68.62228727315937 14.5154631007876 98.41372253606792 H 0.0 **** 0.06
15361 C 20.80796011964611 1.3995723644234204 24.869135487263293 C 0.0 **** -0.24
15362 H 21.431032900978344 1.6757614733414385 24.01797859068906 H 0.0 **** 0.06
15363 H 19.923518634579874 0.869302722860283 24.51376724827125 H 0.0 **** 0.06
15364 H 20.502356238950536 2.3000339191633117 25.402315952144676 H 0.0 **** 0.06
15365 H 21.3748240149136 0.7545758180157804 25.539820850763633 H 0.0 **** 0.06
15366 C 22.7565323433801 12.389663515734242 94.70145867358198 C 0.0 **** -0.24
15367 H 22.05579928273597 11.970535482143816 95.42323840018514 H 0.0 **** 0.06
15368 H 22.59208903127594 13.464615978502366 94.61760873559462 H 0.0 **** 0.06
15369 H 22.60135373322565 11.920272931432066 93.72996898610327 H 0.0 **** 0.06
15370 H 23.77726932020478 12.202440626714576 95.03612834778582 H 0.0 **** 0.06
15371 C 36.251711483664835 55.993249036172124 27.511357031488956 C 0.0 **** -0.24
15372 H 36.02716351130212 56.97748717309354 27.92129065585746 H 0.0 **** 0.06
15373 H 36.38096955855408 55.280996753075776 28.325872917119597 H 0.0 **** 0.06
15374 H 37.16918491529136 56.0452514779771 26.924042422731958 H 0.0 **** 0.06
15375 H 35.42997076178124 55.67025550282275 26.872269018982536 H 0.0 **** 0.06
15376 C 6.358938269060683 98.00258251319346 47.523857124941884 C 0.0 **** -0.24
15377 H 6.723832573663628 98.21206198649628 48.529863427190236 H 0.0 **** 0.06
15378 H 5.4889724589252324 98.62650463459619 47.31536998546662 H 0.0 **** 0.06
15379 H 6.078865566611839 96.95223877322346 47.45152199400144 H 0.0 **** 0.06
15380 H 7.144592617250051 98.22144982975337 46.80009920896171 H 0.0 **** 0.06
15381 C 9.948638731440127 8.561226414906184 34.76836294454509 C 0.0 **** -0.24
15382 H 10.356198170903326 9.116095800605432 33.92411989843319 H 0.0 **** 0.06
15383 H 10.722337447079031 8.43035179978056 35.52548136971404 H 0.0 **** 0.06
15384 H 9.603896160775314 7.583771373993507 34.42902475746686 H 0.0 **** 0.06
15385 H 9.111629251127287 9.113199156162011 35.19642062008519 H 0.0 **** 0.06
15386 C 54.94715670996319 24.953404704236277 43.92200742685356 C 0.0 **** -0.24
15387 H 55.18734812138657 23.94862605505034 44.270402478025446 H 0.0 **** 0.06
15388 H 55.28091229317378 25.069279885929575 42.8901002758347 H 0.0 **** 0.06
15389 H 55.451808655845575 25.686644729424415 44.55136712139687 H 0.0 **** 0.06
15390 H 53.869931888184674 25.10771448177246 43.97502860817333 H 0.0 **** 0.06
15391 C 82.64302981490448 5.546808145674504 84.67458841709737 C 0.0 **** -0.24
15392 H 82.04787635505929 5.066968249988861 85.45178091834663 H 0.0 **** 0.06
15393 H 82.14450617535755 6.458619951922486 84.34746691834658 H 0.0 **** 0.06
15394 H 82.75277020967496 4.867188490135604 83.82923504513406 H 0.0 **** 0.06
15395 H 83.62755040181702 5.792483111663898 85.0720542987562 H 0.0 **** 0.06
15396 C 43.946748897456104 105.7575885952568 30.247084563560435 C 0.0 **** -0.24
15397 H 44.04241712929526 105.27327285970813 29.274428879449346 H 0.0 **** 0.06
15398 H 44.763399474510635 106.46740886038754 30.380666685943424 H 0.0 **** 0.06
15399 H 43.986217484426874 105.004938062952 31.03379510249313 H 0.0 **** 0.06
15400 H 42.99435796806195 106.28646118286866 30.297069529825237 H 0.0 **** 0.06
15401 C 103.35277082234364 104.87819556709081 78.78689278393693 C 0.0 **** -0.24
15402 H 103.76734297845303 104.5804790050492 79.74972759571801 H 0.0 **** 0.06
15403 H 102.62358923225202 104.13665039993532 78.46021998981075 H 0.0 **** 0.06
15404 H 104.15490537612908 104.94818960273943 78.05160224947326 H 0.0 **** 0.06
15405 H 102.86593092392263 105.84771381077417 78.88533737681053 H 0.0 **** 0.06
15406 C 92.13441944058351 32.12037971686166 21.263252373005344 C 0.0 **** -0.24
15407 H 93.12059825490255 32.528212534358175 21.04154115459704 H 0.0 **** 0.06
15408 H 92.04039954086542 31.96227608018424 22.337486338049416 H 0.0 **** 0.06
15409 H 92.00960377367804 31.170960297671172 20.74291793841377 H 0.0 **** 0.06
15410 H 91.36863310228628 32.821455986443084 20.930254598840747 H 0.0 **** 0.06
15411 C 74.21934513537934 8.732588817522544 54.10966351194335 C 0.0 **** -0.24
15412 H 73.92461331514215 8.417508028617679 55.11098285042266 H 0.0 **** 0.06
15413 H 75.05621251112433 8.12385969246185 53.768930602888105 H 0.0 **** 0.06
15414 H 74.51751055797732 9.781098824413398 54.13322865353874 H 0.0 **** 0.06
15415 H 73.37779930154454 8.608903980268813 53.428045730792235 H 0.0 **** 0.06
15416 C 6.539369134846652 95.111303115737 12.26240283950484 C 0.0 **** -0.24
15417 H 6.0986185949660126 94.69108052217635 13.166391810306767 H 0.0 **** 0.06
15418 H 7.429616514632016 95.68284105145284 12.524452656888599 H 0.0 **** 0.06
15419 H 5.8157997657481815 95.76622394072061 11.775837044940506 H 0.0 **** 0.06
15420 H 6.8119234450294925 94.3031446842933 11.582945496795851 H 0.0 **** 0.06
15421 C 29.485675816747374 15.329814418301055 58.411372791209885 C 0.0 **** -0.24
15422 H 28.422685126020667 15.227329380973856 58.63181732009127 H 0.0 **** 0.06
15423 H 30.061068327719 15.1917695309711 59.32756397021737 H 0.0 **** 0.06
15424 H 29.678458364033958 16.323107845708876 58.008050222326744 H 0.0 **** 0.06
15425 H 29.77919349768362 14.57703130958032 57.679880425594604 H 0.0 **** 0.06
15426 C 16.941026257957922 111.2970631215351 72.0436946778837 C 0.0 **** -0.24
15427 H 17.31887681623266 111.85135076707715 72.90246720712747 H 0.0 **** 0.06
15428 H 17.13547972795472 111.86259065295877 71.1316844474918 H 0.0 **** 0.06
15429 H 15.867950620142466 111.14269602590113 72.15459362977973 H 0.0 **** 0.06
15430 H 17.442532851914425 110.33101210941734 71.98572305954193 H 0.0 **** 0.06
15431 C 58.0744962978504 25.67853216915058 120.20353570971113 C 0.0 **** -0.24
15432 H 58.020497829026226 25.861319181386264 121.27741106671971 H 0.0 **** 0.06
15433 H 58.07325435793055 24.604329986488004 120.01770977924832 H 0.0 **** 0.06
15434 H 58.98970635156152 26.116484635497635 119.80634145961307 H 0.0 **** 0.06
15435 H 57.212592289241314 26.13293215599287 119.71451906083286 H 0.0 **** 0.06
15436 C 109.50591070865491 93.3772465593868 31.463122429250177 C 0.0 **** -0.24
15437 H 108.81749635070943 93.5430177215751 30.63361787897727 H 0.0 **** 0.06
15438 H 110.05433924336398 92.44976382696464 31.299972113809275 H 0.0 **** 0.06
15439 H 108.94153535552536 93.30754529450576 32.39349298537654 H 0.0 **** 0.06
15440 H 110.2069755892743 94.20973058329776 31.524412901564645 H 0.0 **** 0.06
15441 C 17.666508092559226 53.321915298759905 23.674969895348944 C 0.0 **** -0.24
15442 H 17.30054640512591 53.97392998071939 22.881306821836148 H 0.0 **** 0.06
15443 H 18.625959234775017 52.89549569935383 23.38158451790759 H 0.0 **** 0.06
15444 H 16.94784139562696 52.519850833856765 23.843688330859393 H 0.0 **** 0.06
15445 H 17.788704661111257 53.89883640948261 24.591321969945895 H 0.0 **** 0.06
15446 C 57.18951002558674 4.144343955945271 115.74991403128341 C 0.0 **** -0.24
15447 H 56.94366723353008 3.2764372364688654 116.36010356066205 H 0.0 **** 0.06
15448 H 56.87500750246596 3.9672010045374897 114.72145029212817 H 0.0 **** 0.06
15449 H 58.266416878811896 4.314267988632601 115.77668434014511 H 0.0 **** 0.06
15450 H 56.67416837821568 5.0215711461675205 116.14172725370899 H 0.0 **** 0.06
15451 C 32.322778384185284 53.71750754791151 114.55264479538454 C 0.0 **** -0.24
15452 H 31.584624532139486 53.25999297851823 113.89417883573648 H 0.0 **** 0.06
15453 H 33.24505386927035 53.13710769483595 114.52185378898739 H 0.0 **** 0.06
15454 H 31.939245107497896 53.735486380577754 115.57290266964498 H 0.0 **** 0.06
15455 H 32.52306638006144 54.736440026027054 114.22116861352077 H 0.0 **** 0.06
15456 C 13.92570122166029 116.78669857258383 61.36077613856279 C 0.0 **** -0.24
15457 H 13.481794730689614 117.77380334636089 61.48703492526521 H 0.0 **** 0.06
15458 H 14.947616769179831 116.79730687013114 61.74202054805064 H 0.0 **** 0.06
15459 H 13.935232957501682 116.5260550964649 60.30180525689172 H 0.0 **** 0.06
15460 H 13.339291405187453 116.05116085298029 61.91107142098729 H 0.0 **** 0.06
15461 C 73.4581889873889 26.248621692389975 113.47856287480737 C 0.0 **** -0.24
15462 H 73.37197918459856 25.171067922109444 113.617763670936 H 0.0 **** 0.06
15463 H 73.28534933265647 26.49438666455751 112.43113692475413 H 0.0 **** 0.06
15464 H 74.4570937607165 26.573555461633248 113.76917157096662 H 0.0 **** 0.06
15465 H 72.71715610178666 26.755521688166368 114.09779535546853 H 0.0 **** 0.06
15466 C 90.18244222688045 7.044342363978458 66.64100271559991 C 0.0 **** -0.24
15467 H 90.93620819408946 7.249307231678145 67.40048236411138 H 0.0 **** 0.06
15468 H 89.32051242883966 7.692073323512716 66.79939692835396 H 0.0 **** 0.06
15469 H 89.87156668773184 6.001471592826661 66.71017014517548 H 0.0 **** 0.06
15470 H 90.60280480197514 7.2331948719514685 65.65273644732682 H 0.0 **** 0.06
15471 C 105.93621412527452 25.1601157717904 112.60702953163846 C 0.0 **** -0.24
15472 H 105.25790847428831 24.453680454840878 112.1290267178687 H 0.0 **** 0.06
15473 H 106.34184528436322 24.715647868746714 113.5158462190791 H 0.0 **** 0.06
15474 H 105.39303762707371 26.07130223109732 112.85794518694277 H 0.0 **** 0.06
15475 H 106.75166163179301 25.399750190413272 111.92361756759081 H 0.0 **** 0.06
15476 C 19.434362717441388 8.216679177420808 111.91433126755574 C 0.0 **** -0.24
15477 H 19.241351297264032 7.178501888971994 111.64340201681358 H 0.0 **** 0.06
15478 H 18.49101121371308 8.760948205481416 111.96206293689181 H 0.0 **** 0.06
15479 H 20.080598182879896 8.672969106697881 111.16542855466167 H 0.0 **** 0.06
15480 H 19.924296656389004 8.252869115582385 112.88739198403633 H 0.0 **** 0.06
15481 C 71.36005785843119 5.203238716347187 61.78546482566369 C 0.0 **** -0.24
15482 H 72.28417874369853 4.883581853062871 62.266573111638685 H 0.0 **** 0.06
15483 H 71.58955796597974 5.922085989904225 60.99829808385045 H 0.0 **** 0.06
15484 H 70.7082180898089 5.670412311296605 62.524412684371775 H 0.0 **** 0.06
15485 H 70.857479759818 4.338330404860018 61.353071521471 H 0.0 **** 0.06
15486 C 72.04329365968056 2.4641642586520334 55.94951431375878 C 0.0 **** -0.24
15487 H 72.50166322096774 2.5173517893877744 56.937125863119235 H 0.0 **** 0.06
15488 H 72.61017003335371 1.7758114791181043 55.32314243971939 H 0.0 **** 0.06
15489 H 72.04348587492717 3.455340585367736 55.495324247971695 H 0.0 **** 0.06
15490 H 71.01721824823207 2.108990387443498 56.044676788538624 H 0.0 **** 0.06
15491 C 3.577035506608766 82.61006033341408 104.90879019214503 C 0.0 **** -0.24
15492 H 3.3188127709383792 83.27916256857068 104.08824261702972 H 0.0 **** 0.06
15493 H 3.975598825141347 83.1919587171179 105.73988205539689 H 0.0 **** 0.06
15494 H 4.3284057095115855 81.89519386851543 104.57302107882515 H 0.0 **** 0.06
15495 H 2.6853307063548897 82.07409786981322 105.23500017835866 H 0.0 **** 0.06
15496 C 11.175621849287182 59.51316755361673 83.61314169820963 C 0.0 **** -0.24
15497 H 11.080864791468912 58.580245383468565 84.16739287350697 H 0.0 **** 0.06
15498 H 11.527454272030496 60.29939547235579 84.28207129678154 H 0.0 **** 0.06
15499 H 10.204657332820688 59.7921744972631 83.20320122232403 H 0.0 **** 0.06
15500 H 11.888644668212777 59.38192418726057 82.79957563760661 H 0.0 **** 0.06
15501 C 6.092989892654629 16.468671710711533 50.474325083742315 C 0.0 **** -0.24
15502 H 5.443280506780667 15.928789414279663 49.78524165822421 H 0.0 **** 0.06
15503 H 6.611813605168891 17.26267121676534 49.93686635082844 H 0.0 **** 0.06
15504 H 6.821828516228521 15.779768667091673 50.9008587463548 H 0.0 **** 0.06
15505 H 5.492053829850761 16.903433438099057 51.2740158389243 H 0.0 **** 0.06
15506 C 92.25339442664585 74.76579680716674 55.510735941169315 C 0.0 **** -0.24
15507 H 91.60543077828294 75.42298495615557 56.09147256543454 H 0.0 **** 0.06
15508 H 91.7995751752311 73.77772763972175 55.44009963668739 H 0.0 **** 0.06
15509 H 93.2233699473554 74.68736438107894 56.00120912406757 H 0.0 **** 0.06
15510 H 92.38479131669044 75.17920797073967 54.50995959918498 H 0.0 **** 0.06
15511 C 91.52322769782756 0.13308031314205948 27.577241132483437 C 0.0 **** -0.24
15512 H 92.24722359012713 0.7952891341439283 28.051874198029566 H 0.0 **** 0.06
15513 H 90.53188619870957 0.3226908256838499 27.98975423276289 H 0.0 **** 0.06
15514 H 91.80203449299671 -0.9043760434907142 27.763757215074975 H 0.0 **** 0.06
15515 H 91.51121141523265 0.3181086146622647 26.503011976583423 H 0.0 **** 0.06
15516 C 25.37318836865969 75.96033828713203 44.993314494850324 C 0.0 **** -0.24
15517 H 26.037384147901193 76.23693655851682 45.81290437027678 H 0.0 **** 0.06
15518 H 24.518935821557612 75.40972216680109 45.38910318195508 H 0.0 **** 0.06
15519 H 25.91417332586824 75.33306217571746 44.28502072138525 H 0.0 **** 0.06
15520 H 25.024374670138933 76.86096073797307 44.48924280763799 H 0.0 **** 0.06
15521 C 24.395441556858458 101.61719407580037 108.5557972842362 C 0.0 **** -0.24
15522 H 25.469765475548087 101.43127607677039 108.55266992526487 H 0.0 **** 0.06
15523 H 23.910951790630264 100.9557094433583 107.83856454700003 H 0.0 **** 0.06
15524 H 24.206528245218152 102.65446424243774 108.27974932554747 H 0.0 **** 0.06
15525 H 23.997764907772506 101.42801603961948 109.55218476194952 H 0.0 **** 0.06
15526 C 73.90350671303773 16.19832452615042 24.758080157244223 C 0.0 **** -0.24
15527 H 72.9180629255016 16.20358108006481 24.291858041780074 H 0.0 **** 0.06
15528 H 74.60669131467711 15.671354483614579 24.11334679747705 H 0.0 **** 0.06
15529 H 73.84599863115909 15.6935711018848 25.72276143269798 H 0.0 **** 0.06
15530 H 74.24116169522924 17.22469404380645 24.903627004223296 H 0.0 **** 0.06
15531 C 21.517846216780896 34.14320382427576 95.88361153321983 C 0.0 **** -0.24
15532 H 20.54714700978741 33.96521903613433 95.41948691295494 H 0.0 **** 0.06
15533 H 21.425837994503354 34.0456729954949 96.96639474389491 H 0.0 **** 0.06
15534 H 21.859838202712808 35.148646698212616 95.63725353408199 H 0.0 **** 0.06
15535 H 22.236872817360535 33.41328116846671 95.51308523700106 H 0.0 **** 0.06
15536 C 36.17666158832753 59.39946919769207 65.40440264396338 C 0.0 **** -0.24
15537 H 35.448354328174275 59.62345724800454 66.18407695997519 H 0.0 **** 0.06
15538 H 37.06926593655959 60.00613957017302 65.55740156954704 H 0.0 **** 0.06
15539 H 35.74615683433626 59.6261275820446 64.4289869556361 H 0.0 **** 0.06
15540 H 36.44246221329962 58.34416469238482 65.44803122685582 H 0.0 **** 0.06
15541 C 6.551684011440813 115.82589187725543 20.024126723561714 C 0.0 **** -0.24
15542 H 6.792466273723079 116.13948505141286 21.04013380000938 H 0.0 **** 0.06
15543 H 5.492748911219451 116.00121447452995 19.83072132911733 H 0.0 **** 0.06
15544 H 6.772172012039988 114.7650885050823 19.90954785309559 H 0.0 **** 0.06
15545 H 7.150873425497906 116.39959281100317 19.315481157485515 H 0.0 **** 0.06
15546 C 85.38059726361712 118.65558732245663 93.93835084020961 C 0.0 **** -0.24
15547 H 85.33193401572746 117.70291861016585 94.46589169169971 H 0.0 **** 0.06
15548 H 86.07761879603237 119.31928173805395 94.45123475128423 H 0.0 **** 0.06
15549 H 84.39014502303954 119.11182317444448 93.9205910175476 H 0.0 **** 0.06
15550 H 85.72217738235415 118.4889519793532 92.9168451849269 H 0.0 **** 0.06
15551 C 39.27081986945953 95.94489711870372 23.560087926666057 C 0.0 **** -0.24
15552 H 40.18526239405173 96.47384926774001 23.82677419838633 H 0.0 **** 0.06
15553 H 39.505536742008275 95.14666977713634 22.854412116638002 H 0.0 **** 0.06
15554 H 38.56914393672267 96.64113358677639 23.101314817964024 H 0.0 **** 0.06
15555 H 38.824139873551246 95.51697969378554 24.457187001471 H 0.0 **** 0.06
15556 C 87.73888044644411 97.93322145306979 89.4582578095883 C 0.0 **** -0.24
15557 H 87.17536477237317 97.0171362619055 89.63169963466612 H 0.0 **** 0.06
15558 H 87.17217287514154 98.5893648333873 88.79729597464916 H 0.0 **** 0.06
15559 H 88.69633897787426 97.69006530711835 88.99630495226023 H 0.0 **** 0.06
15560 H 87.91215171150228 98.4383535605732 90.40899794583035 H 0.0 **** 0.06
15561 C 20.904222697629024 96.81469560439149 95.50490386453686 C 0.0 **** -0.24
15562 H 20.870448367097055 96.87165092040294 94.41687880959185 H 0.0 **** 0.06
15563 H 20.008656158837482 96.31194527255047 95.8708025385609 H 0.0 **** 0.06
15564 H 20.949809109211316 97.82204426161906 95.91958293219028 H 0.0 **** 0.06
15565 H 21.78681980613098 96.25388700858736 95.8120262760861 H 0.0 **** 0.06
15566 C 104.12367175757674 91.88911211316997 25.27424748123407 C 0.0 **** -0.24
15567 H 103.7776604396941 91.05160605820731 25.879976712735434 H 0.0 **** 0.06
15568 H 104.36565925270395 92.73070550675482 25.923573871594172 H 0.0 **** 0.06
15569 H 103.33764737281808 92.18122858199945 24.577772950360917 H 0.0 **** 0.06
15570 H 105.011924166185 91.59279383812623 24.716539445862495 H 0.0 **** 0.06
15571 C 85.24262268506197 93.52462145272213 30.924205646490634 C 0.0 **** -0.24
15572 H 86.09089018909364 92.97387893972606 31.330909550038882 H 0.0 **** 0.06
15573 H 85.26780812093736 93.47892549637794 29.835360058765588 H 0.0 **** 0.06
15574 H 85.29621019864678 94.56406101756085 31.246767046525406 H 0.0 **** 0.06
15575 H 84.3145926727941 93.07944786970012 31.285602953569054 H 0.0 **** 0.06
15576 C 32.1158222728221 8.987934916306443 80.61996249570842 C 0.0 **** -0.24
15577 H 31.47847620233651 9.71840375145706 81.11675653024707 H 0.0 **** 0.06
15578 H 32.268069789451914 9.284873238657184 79.5820879948148 H 0.0 **** 0.06
15579 H 31.639976682379796 8.007894004667463 80.65200786096415 H 0.0 **** 0.06
15580 H 33.0784681254699 8.94071672810216 81.12871048252737 H 0.0 **** 0.06
15581 C 109.96893466204247 61.90027634588725 104.10255954020082 C 0.0 **** -0.24
15582 H 110.52564637923501 62.73986397025621 104.51895577058164 H 0.0 **** 0.06
15583 H 109.45229469172523 61.37323727212393 104.90378423026479 H 0.0 **** 0.06
15584 H 110.65886509398072 61.21980449842016 103.60453731613626 H 0.0 **** 0.06
15585 H 109.24031288203724 62.27071486247138 103.38055898034528 H 0.0 **** 0.06
15586 C 34.609695826870336 112.7011176247924 19.501127481187183 C 0.0 **** -0.24
15587 H 35.338507363156964 112.16278577336521 20.10660552526724 H 0.0 **** 0.06
15588 H 34.48563084114545 113.70957972659323 19.89344762789969 H 0.0 **** 0.06
15589 H 33.6544487795739 112.17762214530063 19.532776489698534 H 0.0 **** 0.06
15590 H 34.962353814106336 112.75204811048951 18.47048951441525 H 0.0 **** 0.06
15591 C 15.370460535399758 56.823003488986615 90.12126272200885 C 0.0 **** -0.24
15592 H 15.843354489304673 57.3036924477523 90.97721687990204 H 0.0 **** 0.06
15593 H 14.930716148931253 57.582563345305374 89.4744235905257 H 0.0 **** 0.06
15594 H 14.590117266843748 56.14675088101069 90.4699773743821 H 0.0 **** 0.06
15595 H 16.118243974909973 56.25876502070406 89.5626626058064 H 0.0 **** 0.06
15596 C 4.933840829121692 109.54219447335129 114.62226688587153 C 0.0 **** -0.24
15597 H 4.60094853677451 108.58046416028446 115.01314113582141 H 0.0 **** 0.06
15598 H 5.06366210940061 109.46978487020266 113.54190653906349 H 0.0 **** 0.06
15599 H 5.882048924589114 109.81466727338523 115.08501527883614 H 0.0 **** 0.06
15600 H 4.1863060913106835 110.30376175660456 114.84851304049658 H 0.0 **** 0.06
15601 C 39.91304111076818 87.31555198833013 52.26134945223987 C 0.0 **** -0.24
15602 H 39.29325095049214 87.27578926622368 53.157574456859095 H 0.0 **** 0.06
15603 H 39.29585666537983 87.11438883219842 51.38469389010811 H 0.0 **** 0.06
15604 H 40.70119030622084 86.56579119695698 52.33174647075788 H 0.0 **** 0.06
15605 H 40.35989552445818 88.30479721993527 52.17157731869406 H 0.0 **** 0.06
15606 C 63.50931504330563 87.69645472942983 33.76106044215003 C 0.0 **** -0.24
15607 H 62.91677914533856 87.01484878991008 33.1495264949304 H 0.0 **** 0.06
15608 H 62.95712403845544 88.62486874183267 33.908487280520326 H 0.0 **** 0.06
15609 H 64.45153709689481 87.9096120685632 33.256011246289866 H 0.0 **** 0.06
15610 H 63.710561353775695 87.23467776653638 34.72773985850869 H 0.0 **** 0.06
15611 C 63.12359436365552 29.496910053536794 56.97887457747257 C 0.0 **** -0.24
15612 H 62.89599332477666 29.119114369216618 57.976441820572006 H 0.0 **** 0.06
15613 H 64.15308079233014 29.855773483481755 56.953069013922885 H 0.0 **** 0.06
15614 H 62.44646176194069 30.31556188596022 56.738053756744335 H 0.0 **** 0.06
15615 H 62.99925599325746 28.69535681963498 56.25047665412396 H 0.0 **** 0.06
15616 C 99.07262194593201 16.773753260700516 95.75278571970577 C 0.0 **** -0.24
15617 H 98.83894939251246 15.72081502789544 95.59302219456265 H 0.0 **** 0.06
15618 H 100.12195475861472 16.952142660401165 95.51487590800818 H 0.0 **** 0.06
15619 H 98.88670198200663 17.033586398413604 96.79440156910388 H 0.0 **** 0.06
15620 H 98.44527110440677 17.387077359433334 95.10730876071986 H 0.0 **** 0.06
15621 C 107.8416505688499 12.166683313664507 15.717617523115706 C 0.0 **** -0.24
15622 H 108.3321181910751 12.820508808204075 14.99527345041912 H 0.0 **** 0.06
15623 H 106.81438636915055 12.499349690869515 15.868940077643089 H 0.0 **** 0.06
15624 H 108.37950185465309 12.205096423333416 16.66491555340727 H 0.0 **** 0.06
15625 H 107.84178867273158 11.144750616072816 15.3404788392005 H 0.0 **** 0.06
15626 C 68.35183487192558 30.68336695456256 98.1354972563403 C 0.0 **** -0.24
15627 H 67.63990005934451 31.32733145341794 97.61762297927052 H 0.0 **** 0.06
15628 H 69.32022406159157 30.739121153831093 97.63768101576309 H 0.0 **** 0.06
15629 H 67.99208785761854 29.654610646333566 98.11543046014907 H 0.0 **** 0.06
15630 H 68.4542063891056 31.012946767438876 99.16929043364155 H 0.0 **** 0.06
15631 C 68.86043282820054 110.94326418555212 96.42345585015863 C 0.0 **** -0.24
15632 H 69.73072711199467 110.61923873298272 96.99425748058667 H 0.0 **** 0.06
15633 H 68.34472982379208 110.07172402660876 96.0204666663899 H 0.0 **** 0.06
15634 H 69.18254352536232 111.58624920269594 95.60370762346614 H 0.0 **** 0.06
15635 H 68.18547081403702 111.49719761853216 97.07646059818552 H 0.0 **** 0.06
15636 C 39.24710140047219 85.22741096201239 114.68489419245701 C 0.0 **** -0.24
15637 H 39.497775578504616 85.14606864227787 113.62811516696186 H 0.0 **** 0.06
15638 H 39.430599730019054 84.2716953315157 115.17656599855681 H 0.0 **** 0.06
15639 H 38.195454468993205 85.49362510256753 114.78859020564428 H 0.0 **** 0.06
15640 H 39.864719807948234 85.99800367022209 115.14726261987563 H 0.0 **** 0.06
15641 C 104.16755470464713 94.39727952048679 110.56005449030397 C 0.0 **** -0.24
15642 H 103.34743522989876 94.88169562897414 111.09026786773887 H 0.0 **** 0.06
15643 H 105.11329684183403 94.66892108191675 111.02844511105243 H 0.0 **** 0.06
15644 H 104.17005636961343 94.72138014695639 109.5195677628075 H 0.0 **** 0.06
15645 H 104.03816764372942 93.31570818820643 110.60348936897054 H 0.0 **** 0.06
15646 C 9.040513742775005 77.38530213923403 105.36443884966874 C 0.0 **** -0.24
15647 H 9.38163157304021 76.6025619615429 106.04165782836438 H 0.0 **** 0.06
15648 H 9.300732611242324 77.11749707761953 104.34042580536806 H 0.0 **** 0.06
15649 H 9.521074467883324 78.32789518145387 105.62645387533806 H 0.0 **** 0.06
15650 H 7.958968378953671 77.49232139908665 105.44914214315742 H 0.0 **** 0.06
15651 C 34.34367388279767 36.92175700215253 96.97109410443434 C 0.0 **** -0.24
15652 H 34.73950793354588 37.82013249430275 97.44486727301489 H 0.0 **** 0.06
15653 H 33.827673078900105 37.195313697925826 96.0493641130845 H 0.0 **** 0.06
15654 H 33.64404120111491 36.43283799915538 97.64793335189216 H 0.0 **** 0.06
15655 H 35.16282857064967 36.241756361396796 96.7400880841571 H 0.0 **** 0.06
15656 C 57.98154382928809 81.19704698241628 7.402970576499925 C 0.0 **** -0.24
15657 H 58.34990927446635 81.05989059558965 8.418674788049302 H 0.0 **** 0.06
15658 H 58.20351008611019 80.30764871483086 6.812721591414771 H 0.0 **** 0.06
15659 H 58.46954919158215 82.06187149839553 6.952903379868516 H 0.0 **** 0.06
15660 H 56.90386437976287 81.35925544787352 7.425499514169459 H 0.0 **** 0.06
15661 C 0.7795054123876071 19.071163461021825 120.23939165124148 C 0.0 **** -0.24
15662 H 0.6017905652279296 18.011388960190146 120.05759354818342 H 0.0 **** 0.06
15663 H -0.08443802696514524 19.64672198583517 119.905677253996 H 0.0 **** 0.06
15664 H 1.6643667345506543 19.391013508548895 119.69009077172655 H 0.0 **** 0.06
15665 H 0.9346431023884065 19.23509712546607 121.30645456472953 H 0.0 **** 0.06
15666 C 81.36958455032214 87.44515570427376 6.838979726708601 C 0.0 **** -0.24
15667 H 80.4655269461824 87.72422071321017 6.298402571824866 H 0.0 **** 0.06
15668 H 81.19751116141728 87.54565998057143 7.910679673836711 H 0.0 **** 0.06
15669 H 82.18852450202951 88.09956845793926 6.538191588235051 H 0.0 **** 0.06
15670 H 81.6270907999909 86.41208511766087 6.605804228098549 H 0.0 **** 0.06
15671 C 72.76520602309358 20.408792625936265 64.51105178334677 C 0.0 **** -0.24
15672 H 73.32289731045555 21.289685007664097 64.83024014744998 H 0.0 **** 0.06
15673 H 72.01830398136934 20.70126079544996 63.77339277827277 H 0.0 **** 0.06
15674 H 72.27085603412786 19.960750981716764 65.37202031196128 H 0.0 **** 0.06
15675 H 73.45094926522574 19.686462281516633 64.06800074850949 H 0.0 **** 0.06
15676 C 33.0003798915011 30.621958161351273 113.31837177786997 C 0.0 **** -0.24
15677 H 33.39371646606651 29.616389421230565 113.16433911596687 H 0.0 **** 0.06
15678 H 32.628563350781974 31.015422773289657 112.37217824493177 H 0.0 **** 0.06
15679 H 33.79337251874483 31.268725087043094 113.6945677342242 H 0.0 **** 0.06
15680 H 32.18666662771648 30.585514505897066 114.04283759824287 H 0.0 **** 0.06
15681 C 108.82909310911265 25.333168421170257 107.15393677011548 C 0.0 **** -0.24
15682 H 109.31299832449989 26.296224043041633 106.99302776142085 H 0.0 **** 0.06
15683 H 108.53533153410103 25.24422323499462 108.20011890221085 H 0.0 **** 0.06
15684 H 109.52277627482547 24.530905199250782 106.90128375053536 H 0.0 **** 0.06
15685 H 107.94512019962505 25.26157571974096 106.51993319653116 H 0.0 **** 0.06
15686 C 10.744494619560044 95.48977225238227 121.3060373136095 C 0.0 **** -0.24
15687 H 10.138663822975701 95.36184718448996 120.40819577376547 H 0.0 **** 0.06
15688 H 10.120829336130242 95.88032147569072 122.11112434853085 H 0.0 **** 0.06
15689 H 11.554376148053393 96.18898879300585 121.10181150679415 H 0.0 **** 0.06
15690 H 11.160378525753458 94.5276469123385 121.60297243123794 H 0.0 **** 0.06
15691 C 70.69939718876881 110.13378752743358 11.825999804714293 C 0.0 **** -0.24
15692 H 71.30631169568599 111.03543408416374 11.90544393899684 H 0.0 **** 0.06
15693 H 70.30629883857353 109.87262709028903 12.808746499252976 H 0.0 **** 0.06
15694 H 71.31360478033665 109.31397659874222 11.451386280698582 H 0.0 **** 0.06
15695 H 69.87291008692387 110.31121892333198 11.138190038936 H 0.0 **** 0.06
15696 C 34.92556187270361 34.929570978142266 82.74541352589986 C 0.0 **** -0.24
15697 H 34.28052852356987 34.217768495972706 82.23007252675794 H 0.0 **** 0.06
15698 H 35.27539351385974 34.49121404984638 83.68015475494266 H 0.0 **** 0.06
15699 H 34.36502759197458 35.840056906497864 82.95752393937678 H 0.0 **** 0.06
15700 H 35.780866105453555 35.16785657428434 82.11220357747402 H 0.0 **** 0.06
15701 C 21.768220285855648 86.55479801365018 47.26790540419546 C 0.0 **** -0.24
15702 H 22.575512581317355 86.01581497737553 46.769511277466336 H 0.0 **** 0.06
15703 H 21.978761602009 87.62452130611106 47.24380928685821 H 0.0 **** 0.06
15704 H 21.69396982101358 86.2208594637406 48.3029063950041 H 0.0 **** 0.06
15705 H 20.828148840746337 86.35658965925182 46.75280806482962 H 0.0 **** 0.06
15706 C 64.2852066560547 15.552982167633317 93.38928840650826 C 0.0 **** -0.24
15707 H 64.92270867434263 16.009550849726338 92.63248240928775 H 0.0 **** 0.06
15708 H 64.38437440554401 16.10187266873625 94.32546204043439 H 0.0 **** 0.06
15709 H 64.58663896528356 14.516729247103996 93.54100377922546 H 0.0 **** 0.06
15710 H 63.247410778049584 15.585051285609708 93.05639434084665 H 0.0 **** 0.06
15711 C 78.69018544057272 59.11018143237635 116.251543535753 C 0.0 **** -0.24
15712 H 78.68083401700994 59.10425784221013 117.34169472531805 H 0.0 **** 0.06
15713 H 77.91478898156893 58.44119280456641 115.87811926831608 H 0.0 **** 0.06
15714 H 79.66385747765455 58.77238060624194 115.8954234108283 H 0.0 **** 0.06
15715 H 78.50296563506151 60.12178482593464 115.89230209714722 H 0.0 **** 0.06
15716 C 118.56799897521138 85.62773168505757 100.89745088139875 C 0.0 **** -0.24
15717 H 118.9155421614854 86.60050524434246 101.24529777798432 H 0.0 **** 0.06
15718 H 119.3766882786754 85.12037625506795 100.37049048308984 H 0.0 **** 0.06
15719 H 117.72357231995693 85.7652201530457 100.22160644009051 H 0.0 **** 0.06
15720 H 118.2567009733439 85.02601621413024 101.75058574945905 H 0.0 **** 0.06
15721 C 61.98102794846333 90.88213240538616 20.535912134372154 C 0.0 **** -0.24
15722 H 61.34467446050879 90.1780723555554 21.072144191095788 H 0.0 **** 0.06
15723 H 62.794936175888104 91.20576554345098 21.185357410251015 H 0.0 **** 0.06
15724 H 61.39090952840494 91.74757746090015 20.233784250286533 H 0.0 **** 0.06
15725 H 62.393128900743086 90.39741625087609 19.65019589945021 H 0.0 **** 0.06
15726 C 22.81623390776526 119.80946843995869 64.7207187037869 C 0.0 **** -0.24
15727 H 21.76250205210895 119.92344857765063 64.97438346414347 H 0.0 **** 0.06
15728 H 23.42845479498463 120.06689775904925 65.58552845679674 H 0.0 **** 0.06
15729 H 23.064197308713382 120.47072784085738 63.89008863048039 H 0.0 **** 0.06
15730 H 23.01046961999939 118.77610499642577 64.43308417553322 H 0.0 **** 0.06
15731 C 100.89918169957755 89.07877379094901 84.9056697038497 C 0.0 **** -0.24
15732 H 101.63579818399026 89.82405207748008 84.60663371233744 H 0.0 **** 0.06
15733 H 100.63066692854267 88.46635866921815 84.04356600240942 H 0.0 **** 0.06
15734 H 100.00970061646458 89.57997529391434 85.28719634303499 H 0.0 **** 0.06
15735 H 101.32111566755867 88.44387779038723 85.68524584922037 H 0.0 **** 0.06
15736 C 3.7134658517280315 39.39388275481625 116.91332329143805 C 0.0 **** -0.24
15737 H 3.123946563125216 39.56840323295684 117.813370922806 H 0.0 **** 0.06
15738 H 4.614926394697505 38.83740121200606 117.17211157618195 H 0.0 **** 0.06
15739 H 3.9923527327884756 40.34928893798872 116.46968805584939 H 0.0 **** 0.06
15740 H 3.124472610265684 38.81926403209616 116.19862866979688 H 0.0 **** 0.06
15741 C 87.57717777396084 41.96129492803102 109.64099411372393 C 0.0 **** -0.24
15742 H 87.39890099719699 41.15664214298163 110.35389760008155 H 0.0 **** 0.06
15743 H 86.67191304887552 42.139266835894716 109.05992789858612 H 0.0 **** 0.06
15744 H 88.39000187809847 41.67960635488979 108.9712570913415 H 0.0 **** 0.06
15745 H 87.84869963725609 42.8698446951804 110.17945988311129 H 0.0 **** 0.06
15746 C 29.58887457482833 41.727113435225704 86.39210801528583 C 0.0 **** -0.24
15747 H 30.517972932668677 41.952600707197234 85.8669071384341 H 0.0 **** 0.06
15748 H 29.157648305948882 40.81147943206821 85.98672123877759 H 0.0 **** 0.06
15749 H 28.88774501451757 42.550325371246174 86.25845726645588 H 0.0 **** 0.06
15750 H 29.79535462000981 41.59276704336338 87.4537054639946 H 0.0 **** 0.06
15751 C 3.3830483937161375 103.60657595071805 105.53237896654741 C 0.0 **** -0.24
15752 H 3.992608357215829 102.89320761802858 104.97778235802042 H 0.0 **** 0.06
15753 H 4.01472141300718 104.1626585915098 106.22465664796027 H 0.0 **** 0.06
15754 H 2.6145308719050036 103.07157564697616 106.09063486180492 H 0.0 **** 0.06
15755 H 2.909841053793798 104.29963718774104 104.83604562539034 H 0.0 **** 0.06
15756 C 37.59222090091423 27.88931581327347 113.70889161451794 C 0.0 **** -0.24
15757 H 37.417408718549126 28.381391039223473 114.6665230122994 H 0.0 **** 0.06
15758 H 37.15731650541824 28.487734992209177 112.90876865800576 H 0.0 **** 0.06
15759 H 37.129712904789045 26.903108778177042 113.71816971602503 H 0.0 **** 0.06
15760 H 38.6648360271995 27.7862688740204 113.54392415923257 H 0.0 **** 0.06
15761 C 34.26185798965312 61.21388313163092 115.83488684886743 C 0.0 **** -0.24
15762 H 33.32704805832097 61.44728185454167 116.34537642211806 H 0.0 **** 0.06
15763 H 34.57352332316103 62.07171307449829 115.23850134396905 H 0.0 **** 0.06
15764 H 34.11406082424455 60.352107781933285 115.18258747049627 H 0.0 **** 0.06
15765 H 35.03071426248596 60.98403347587825 116.57185987470058 H 0.0 **** 0.06
15766 C 27.80726283305242 49.0728040414387 110.01181641413794 C 0.0 **** -0.24
15767 H 28.061435476654964 48.11946181678442 109.54748134866148 H 0.0 **** 0.06
15768 H 27.197652722581466 48.893190322421134 110.89782126633528 H 0.0 **** 0.06
15769 H 27.248583256770104 49.68391278586311 109.30303552133068 H 0.0 **** 0.06
15770 H 28.72192912665446 49.5922962460005 110.29853680556215 H 0.0 **** 0.06
15771 C 115.09169880602778 113.83927491418787 25.09267530399265 C 0.0 **** -0.24
15772 H 115.96133404995828 113.18338534824922 25.133900926076592 H 0.0 **** 0.06
15773 H 115.29591929113857 114.66981832311208 24.41635894788098 H 0.0 **** 0.06
15774 H 114.88103116213358 114.22630724089406 26.09017232691062 H 0.0 **** 0.06
15775 H 114.23075765800047 113.27845127299295 24.730724703752287 H 0.0 **** 0.06
15776 C 109.09840232681677 112.17109084826255 4.4009136407876905 C 0.0 **** -0.24
15777 H 109.29695366483179 111.55750977416508 3.5225471321525887 H 0.0 **** 0.06
15778 H 108.0450676714924 112.08999423098749 4.670673930510141 H 0.0 **** 0.06
15779 H 109.33675732794893 113.2119331478496 4.178458215574528 H 0.0 **** 0.06
15780 H 109.7143093085354 111.82717848011106 5.231165371920252 H 0.0 **** 0.06
15781 C 82.6572916308968 26.52185614352112 2.0689151759906963 C 0.0 **** -0.24
15782 H 82.693815563839 27.591167602454618 2.2771557496074593 H 0.0 **** 0.06
15783 H 82.89495411616755 25.967302028606298 2.9778577055564597 H 0.0 **** 0.06
15784 H 83.38403847038617 26.278099954474612 1.2939635115978945 H 0.0 **** 0.06
15785 H 81.65814745699691 26.251935665547137 1.7288359029323033 H 0.0 **** 0.06
15786 C 71.48576057204804 121.41692026244326 27.435777558598772 C 0.0 **** -0.24
15787 H 71.75801492431793 121.43800687126964 26.380756693514456 H 0.0 **** 0.06
15788 H 70.54809222172958 120.87250154655644 27.558123763076424 H 0.0 **** 0.06
15789 H 71.36426704622437 122.4366540590068 27.800165260277765 H 0.0 **** 0.06
15790 H 72.27113180140276 120.9190687241863 28.003331021746305 H 0.0 **** 0.06
15791 C 30.186196346431416 44.78783372473099 78.2106955344646 C 0.0 **** -0.24
15792 H 30.04805579749521 44.05317634053601 77.41768429765838 H 0.0 **** 0.06
15793 H 30.85883803856092 45.57246783089286 77.86458776129436 H 0.0 **** 0.06
15794 H 30.61460310305739 44.301419979818945 79.08659758723581 H 0.0 **** 0.06
15795 H 29.221791407467776 45.22535439589194 78.47265357997452 H 0.0 **** 0.06
15796 C 18.34627017192001 49.297446490031184 61.72868940451169 C 0.0 **** -0.24
15797 H 17.992409157862966 48.59748491618696 62.48619673510546 H 0.0 **** 0.06
15798 H 18.840314668330308 48.746275416649425 60.92840343995767 H 0.0 **** 0.06
15799 H 19.052901532730203 49.9941514327134 62.179587916525826 H 0.0 **** 0.06
15800 H 17.50067130537205 49.849838459800374 61.32118395202145 H 0.0 **** 0.06
15801 C 86.24531397006962 102.88824061881033 100.7234565921361 C 0.0 **** -0.24
15802 H 87.04553179370347 102.54105550169223 101.3774795946336 H 0.0 **** 0.06
15803 H 86.29355417316566 103.97434909672751 100.6358297038654 H 0.0 **** 0.06
15804 H 85.2824400648025 102.5996322515557 101.14268692828654 H 0.0 **** 0.06
15805 H 86.36254908890186 102.43809357143817 99.73767482420499 H 0.0 **** 0.06
15806 C 9.14146142791759 65.24111178952231 3.2731220235193206 C 0.0 **** -0.24
15807 H 8.293904444783578 65.52445260721169 2.648903888128487 H 0.0 **** 0.06
15808 H 9.850526943517934 64.66250329019584 2.6810760565766287 H 0.0 **** 0.06
15809 H 8.789861224751633 64.63766765950191 4.111160637223719 H 0.0 **** 0.06
15810 H 9.629982890156413 66.1385848469661 3.651360003631666 H 0.0 **** 0.06
15811 C 7.975729066046792 92.5370355541234 96.11551732457227 C 0.0 **** -0.24
15812 H 7.146617917802338 93.24119444118892 96.18535353977566 H 0.0 **** 0.06
15813 H 8.474489811611644 92.4667841693321 97.08206767526522 H 0.0 **** 0.06
15814 H 8.684530070309872 92.8835599968804 95.36425238605534 H 0.0 **** 0.06
15815 H 7.594960978968153 91.55581556730195 95.8303030414175 H 0.0 **** 0.06
15816 C 95.34765936756921 51.75729664380208 113.94990966910001 C 0.0 **** -0.24
15817 H 96.01912316085767 52.16078000128314 113.19182214252538 H 0.0 **** 0.06
15818 H 95.93054774817392 51.412580253593774 114.80412912862698 H 0.0 **** 0.06
15819 H 94.78676098501921 50.92175504028171 113.53112289365191 H 0.0 **** 0.06
15820 H 94.65420557622562 52.53407128004983 114.2725645115961 H 0.0 **** 0.06
15821 C 21.722483697140305 12.162448617600596 29.870462359502426 C 0.0 **** -0.24
15822 H 22.358251649924746 11.634723341807668 30.580916605571076 H 0.0 **** 0.06
15823 H 20.677584832734112 12.04530062762683 30.160122358791625 H 0.0 **** 0.06
15824 H 21.872301405378288 11.749447151742825 28.872526681956344 H 0.0 **** 0.06
15825 H 21.982588780992558 13.221466368984952 29.86802583340568 H 0.0 **** 0.06
15826 C 31.884217932649364 16.636714898377306 99.69027259842045 C 0.0 **** -0.24
15827 H 31.70387240950481 16.584563646925176 98.6174250952551 H 0.0 **** 0.06
15828 H 31.960150407224575 17.680528209665198 99.99504819626583 H 0.0 **** 0.06
15829 H 32.812944882828646 16.119343863428327 99.9291209732616 H 0.0 **** 0.06
15830 H 31.057843107330086 16.162938182215782 100.22161475604008 H 0.0 **** 0.06
15831 C 37.06057587853368 35.94889650374938 119.13093756064431 C 0.0 **** -0.24
15832 H 36.39673163301953 35.08425719966948 119.1641774856369 H 0.0 **** 0.06
15833 H 37.17802056378952 36.354177444591016 120.13607896765227 H 0.0 **** 0.06
15834 H 36.63277225597747 36.710202973652486 118.47929609439626 H 0.0 **** 0.06
15835 H 38.03345839453161 35.644436208127956 118.74516993291299 H 0.0 **** 0.06
15836 C 52.40613641613051 79.84685923820638 30.024438541153557 C 0.0 **** -0.24
15837 H 52.06477252092523 78.82497265150886 29.855188141345337 H 0.0 **** 0.06
15838 H 52.41661191679879 80.38752281552138 29.078131889379705 H 0.0 **** 0.06
15839 H 53.41222154328552 79.82863157450169 30.444286892130577 H 0.0 **** 0.06
15840 H 51.73081006355137 80.34386754091344 30.720282739241924 H 0.0 **** 0.06
15841 C 59.67361266997179 59.77680724062529 66.5394069977755 C 0.0 **** -0.24
15842 H 60.419524548033905 60.57164082696676 66.5660567859052 H 0.0 **** 0.06
15843 H 58.70449355669797 60.17842538501006 66.83366212912736 H 0.0 **** 0.06
15844 H 59.96404069605808 58.98327497562818 67.22861907560247 H 0.0 **** 0.06
15845 H 59.60950560906443 59.373952173845026 65.52874127914174 H 0.0 **** 0.06
15846 C 78.28299186917923 114.4774627973507 94.03265248156995 C 0.0 **** -0.24
15847 H 78.70486388410177 114.59267089670837 93.03453265308349 H 0.0 **** 0.06
15848 H 77.3568216795498 115.0490582851534 94.10355796310938 H 0.0 **** 0.06
15849 H 78.99455433685574 114.84461838806601 94.77234685451566 H 0.0 **** 0.06
15850 H 78.07508900988165 113.42435661972561 94.21924254431573 H 0.0 **** 0.06
15851 C 2.9884258787238025 40.49432906806399 69.33789534279762 C 0.0 **** -0.24
15852 H 2.4779561975490765 41.454946748170414 69.26256567677291 H 0.0 **** 0.06
15853 H 2.284857740059394 39.690992249484 69.11639809093865 H 0.0 **** 0.06
15854 H 3.3781535293288414 40.36965250655942 70.34763450783325 H 0.0 **** 0.06
15855 H 3.811250140907532 40.46357952471061 68.62315212352593 H 0.0 **** 0.06
15856 C 96.80880707798815 6.933531597423325 18.727804955095962 C 0.0 **** -0.24
15857 H 95.79585064968956 7.314599910715543 18.854506581178043 H 0.0 **** 0.06
15858 H 96.7871968249807 6.052776190786204 18.086232649267117 H 0.0 **** 0.06
15859 H 97.21920140308771 6.664471782374505 19.700679252408065 H 0.0 **** 0.06
15860 H 97.43130131370441 7.702524128341594 18.2712586842664 H 0.0 **** 0.06
15861 C 60.84870698522726 25.65514808239766 79.54429771794332 C 0.0 **** -0.24
15862 H 60.70921578818008 26.11927250169768 80.52104226122117 H 0.0 **** 0.06
15863 H 61.70230453229005 24.979209710991654 79.58212113399165 H 0.0 **** 0.06
15864 H 61.02900932957994 26.4287915987168 78.79816174916766 H 0.0 **** 0.06
15865 H 59.95255336441894 25.095294800077824 79.27729752436164 H 0.0 **** 0.06
15866 C 19.634778658448084 101.37091784717384 24.500076047671058 C 0.0 **** -0.24
15867 H 20.101835150034518 100.6704162483932 23.807340233910736 H 0.0 **** 0.06
15868 H 18.701858262339726 100.94606706875021 24.870633037120655 H 0.0 **** 0.06
15869 H 19.427816704389457 102.30769742912742 23.98338479348321 H 0.0 **** 0.06
15870 H 20.30801622532546 101.55692703814123 25.33644429624559 H 0.0 **** 0.06
15871 C 85.69758271901418 55.49530136715589 104.53317792005751 C 0.0 **** -0.24
15872 H 85.53909537810281 54.731340593449374 105.29518441662316 H 0.0 **** 0.06
15873 H 86.74568782937274 55.795646967985135 104.53257635977744 H 0.0 **** 0.06
15874 H 85.07077033795773 56.36048365708865 104.75185127750424 H 0.0 **** 0.06
15875 H 85.43347427593591 55.092880610135126 103.55470387867541 H 0.0 **** 0.06
15876 C 103.17134523734825 39.73636653035112 65.87272273607681 C 0.0 **** -0.24
15877 H 103.93432780853936 39.77909665238626 65.09563274960021 H 0.0 **** 0.06
15878 H 103.0556542100793 40.722944717346664 66.32184879276144 H 0.0 **** 0.06
15879 H 103.47353875161275 39.020991800274544 66.63838994371343 H 0.0 **** 0.06
15880 H 102.22409553648248 39.42244374010019 65.43507724719387 H 0.0 **** 0.06
15881 C 49.304472698602495 104.08658750412036 86.87162657581894 C 0.0 **** -0.24
15882 H 48.43687464977985 103.81357050462037 87.4721583915373 H 0.0 **** 0.06
15883 H 49.88162133606627 103.1912373306157 86.6397674182499 H 0.0 **** 0.06
15884 H 49.92573906030047 104.78644851021511 87.43027386689513 H 0.0 **** 0.06
15885 H 48.971780879957834 104.55578276453815 85.9453117620503 H 0.0 **** 0.06
15886 C 66.04488526700186 101.55520804578634 76.48769754585359 C 0.0 **** -0.24
15887 H 65.05254334633759 101.12612174068033 76.6199415877754 H 0.0 **** 0.06
15888 H 66.79930858437353 100.78572608544746 76.65467406423221 H 0.0 **** 0.06
15889 H 66.18885969609914 102.36630685323493 77.20215837121313 H 0.0 **** 0.06
15890 H 66.1407863040098 101.94324759523204 75.47309639827643 H 0.0 **** 0.06
15891 C 6.862312633594144 75.61670732693892 91.75864781268601 C 0.0 **** -0.24
15892 H 7.554099378844626 76.40177669901973 92.06426901717202 H 0.0 **** 0.06
15893 H 6.332591109037963 75.23813673207133 92.63362130827792 H 0.0 **** 0.06
15894 H 7.417217584905416 74.8048966188183 91.28855847088207 H 0.0 **** 0.06
15895 H 6.14364186086749 76.02443481433275 91.04701391523457 H 0.0 **** 0.06
15896 C 89.0650891050361 73.03964014849089 121.00392973713738 C 0.0 **** -0.24
15897 H 88.44162414049379 73.88182099719336 121.30684569258887 H 0.0 **** 0.06
15898 H 89.89310644263736 73.40264492718762 120.39496261546321 H 0.0 **** 0.06
15899 H 88.46761210373131 72.33584265296409 120.42451413205876 H 0.0 **** 0.06
15900 H 89.45611641808694 72.54028928512608 121.88989668578688 H 0.0 **** 0.06
15901 C 61.121223401978334 83.36188826865211 22.021719989537658 C 0.0 **** -0.24
15902 H 61.935869101642744 82.91950554832673 21.44925428377981 H 0.0 **** 0.06
15903 H 60.30722869407587 83.63009098379666 21.347942526178457 H 0.0 **** 0.06
15904 H 61.479772218912196 84.25503801854879 22.532689027840476 H 0.0 **** 0.06
15905 H 60.76247443452777 82.6416550061991 22.75808976266928 H 0.0 **** 0.06
15906 C 55.04012989341379 62.755171390582355 22.219750519848255 C 0.0 **** -0.24
15907 H 55.914048296668255 62.103470304097975 22.212788525621605 H 0.0 **** 0.06
15908 H 55.26336256127129 63.66727055199758 21.666767342876128 H 0.0 **** 0.06
15909 H 54.78215779445293 63.00672163629313 23.248326225402508 H 0.0 **** 0.06
15910 H 54.20100452969481 62.24135149061036 21.74989744908912 H 0.0 **** 0.06
15911 C 95.31922325793889 120.92337729697881 29.050328838865113 C 0.0 **** -0.24
15912 H 95.12757195577001 121.83743059101741 28.48925627382136 H 0.0 **** 0.06
15913 H 94.67953993235986 120.89966528192048 29.933259289345457 H 0.0 **** 0.06
15914 H 96.36447373674787 120.89817367065386 29.357920005579075 H 0.0 **** 0.06
15915 H 95.10409345566714 120.05926779989792 28.421564903901974 H 0.0 **** 0.06
15916 C 96.78982116256705 6.8863254289989015 3.9924802357572844 C 0.0 **** -0.24
15917 H 97.14288977673954 6.612854670478981 2.9987542362651993 H 0.0 **** 0.06
15918 H 97.3206798178229 7.774484292342123 4.33476379308965 H 0.0 **** 0.06
15919 H 96.97302134074064 6.063736820262278 4.682913243629514 H 0.0 **** 0.06
15920 H 95.72019121378585 7.095062636113937 3.9524709154617312 H 0.0 **** 0.06
15921 C 25.45552591206806 38.2601589705601 69.76155704654562 C 0.0 **** -0.24
15922 H 24.7424045198961 37.977187118712095 70.53603297150269 H 0.0 **** 0.06
15923 H 25.493003515442922 39.34615588445803 69.6810013778092 H 0.0 **** 0.06
15924 H 25.14285145683887 37.83433924766166 68.80836433079426 H 0.0 **** 0.06
15925 H 26.444014025761113 37.88019081089334 70.02314006676795 H 0.0 **** 0.06
15926 C 92.65833655654816 2.1990353660421817 69.52703222085091 C 0.0 **** -0.24
15927 H 92.13713106484869 1.915829637536035 68.6128142736485 H 0.0 **** 0.06
15928 H 93.6436189116616 1.7335533955078688 69.54227432747302 H 0.0 **** 0.06
15929 H 92.08431574493062 1.8649184126809644 70.39095933879844 H 0.0 **** 0.06
15930 H 92.76801165805759 3.2829136001861627 69.5612004578096 H 0.0 **** 0.06
15931 C 117.6642368244967 107.8031953295262 23.56963185992049 C 0.0 **** -0.24
15932 H 116.84604375982522 107.68875931859046 22.858795998487892 H 0.0 **** 0.06
15933 H 117.36104236488917 108.48314610623311 24.365156928891935 H 0.0 **** 0.06
15934 H 118.53627552298761 108.20912541619285 23.056269960852063 H 0.0 **** 0.06
15935 H 117.91385396987988 106.83146453554744 23.996103070052584 H 0.0 **** 0.06
15936 C 19.833512758042872 80.39136928777668 105.9173180289527 C 0.0 **** -0.24
15937 H 19.188996886479828 79.51601954332858 105.82941287777925 H 0.0 **** 0.06
15938 H 20.600207342367952 80.3571845103906 105.14266326788334 H 0.0 **** 0.06
15939 H 20.308060936737405 80.39576499110166 106.89815276818248 H 0.0 **** 0.06
15940 H 19.236448735340048 81.29541390730651 105.79821303183786 H 0.0 **** 0.06
15941 C 36.938535688715945 85.5354537022676 96.73669610020355 C 0.0 **** -0.24
15942 H 37.013587286418215 86.549800913725 97.12957924473434 H 0.0 **** 0.06
15943 H 35.97677448457483 85.10788057456719 97.02010699812593 H 0.0 **** 0.06
15944 H 37.74249911205612 84.92630404559151 97.14865190437501 H 0.0 **** 0.06
15945 H 37.02041672677848 85.56010101190927 95.65020444506277 H 0.0 **** 0.06
15946 C 47.422945770831916 108.81480334463458 16.12752512685298 C 0.0 **** -0.24
15947 H 47.897958914658034 109.7939977859491 16.067977809568756 H 0.0 **** 0.06
15948 H 46.405360992218505 108.8809411946221 15.74130603977424 H 0.0 **** 0.06
15949 H 47.396183397435095 108.48695601977937 17.166686343170657 H 0.0 **** 0.06
15950 H 47.991807310745116 108.09942283514062 15.534720495360936 H 0.0 **** 0.06
15951 C 40.1374249817855 100.18289730700516 55.91067193723677 C 0.0 **** -0.24
15952 H 39.853330968406766 99.35105026322594 55.26576865536194 H 0.0 **** 0.06
15953 H 39.57133990607366 100.13225965511577 56.83975887588062 H 0.0 **** 0.06
15954 H 39.922079590163605 101.1241250892842 55.403524197331194 H 0.0 **** 0.06
15955 H 41.20337491491371 100.12454844002804 56.12993948680813 H 0.0 **** 0.06
15956 C 114.36249225550117 23.801849068110386 10.547803076208993 C 0.0 **** -0.24
15957 H 115.2650954517674 23.518151913847618 11.088995760799179 H 0.0 **** 0.06
15958 H 113.62081635491069 24.180820769317393 11.251896473639675 H 0.0 **** 0.06
15959 H 113.95998516197496 22.9301751755267 10.031164102230548 H 0.0 **** 0.06
15960 H 114.60303771724122 24.57708526004879 9.8210474110694 H 0.0 **** 0.06
15961 C 82.3954166117415 18.908136031539385 93.71715964118843 C 0.0 **** -0.24
15962 H 81.93447490871594 17.97936065440294 94.05376206316936 H 0.0 **** 0.06
15963 H 82.90170563629863 19.387393973187756 94.5545856578533 H 0.0 **** 0.06
15964 H 81.6251931664315 19.574710430165226 93.32805606546103 H 0.0 **** 0.06
15965 H 83.11908219030295 18.690889806348665 92.93152846992476 H 0.0 **** 0.06
15966 C 87.45814106899141 23.928372506926166 113.0349268025763 C 0.0 **** -0.24
15967 H 87.88853805577685 23.25978356916866 113.78108660151533 H 0.0 **** 0.06
15968 H 87.87401893204492 23.69417426555225 112.05468910312588 H 0.0 **** 0.06
15969 H 87.69510879480688 24.960768930564512 113.2929889612883 H 0.0 **** 0.06
15970 H 86.37695047137112 23.799124878668607 113.01175426979047 H 0.0 **** 0.06
15971 C 113.80189498571359 7.7714723179160075 72.99580012358169 C 0.0 **** -0.24
15972 H 114.78306388015004 8.131871583574124 73.30440356343152 H 0.0 **** 0.06
15973 H 113.36101685405103 8.476157645575057 72.29079431881021 H 0.0 **** 0.06
15974 H 113.15653374524523 7.6819190829048125 73.87088202699451 H 0.0 **** 0.06
15975 H 113.90583827085179 6.796449948143916 72.51923498845503 H 0.0 **** 0.06
15976 C 112.05159927020385 52.36108633095395 73.68025355657159 C 0.0 **** -0.24
15977 H 112.3261964166621 51.526274778295374 74.32467436584204 H 0.0 **** 0.06
15978 H 112.00211548484108 52.02081861801898 72.64536398263417 H 0.0 **** 0.06
15979 H 112.7989836862458 53.14899920362552 73.76812797681993 H 0.0 **** 0.06
15980 H 111.07815931719259 52.74856217521409 73.98297674257907 H 0.0 **** 0.06
15981 C 57.57957257699607 10.273572060216686 54.771560930333635 C 0.0 **** -0.24
15982 H 58.047966014215206 11.02791191194444 55.40361400927003 H 0.0 **** 0.06
15983 H 57.228457006210306 9.447556947293386 55.391101156026366 H 0.0 **** 0.06
15984 H 58.30691176672681 9.90347513291799 54.04931300153709 H 0.0 **** 0.06
15985 H 56.735868174802704 10.71738379155811 54.24230276697756 H 0.0 **** 0.06
15986 C 6.173573480519991 56.141045603682755 55.437444705222894 C 0.0 **** -0.24
15987 H 6.298858688028531 55.280081247119995 56.09370311194592 H 0.0 **** 0.06
15988 H 7.052350224493495 56.242775696650426 54.800295133406145 H 0.0 **** 0.06
15989 H 6.055391661086418 57.042182221602275 56.04065369155625 H 0.0 **** 0.06
15990 H 5.288686708330772 55.9998961972118 54.81723558967543 H 0.0 **** 0.06
15991 C 19.906935664233277 63.619149608126094 119.5017580406121 C 0.0 **** -0.24
15992 H 19.52812748347744 63.84106664463897 118.5033290728077 H 0.0 **** 0.06
15993 H 19.483738193820255 64.32655371066326 120.21571639368366 H 0.0 **** 0.06
15994 H 20.993165806560825 63.70575285614106 119.50476563748295 H 0.0 **** 0.06
15995 H 19.62206055245427 62.6049117131291 119.78044022234053 H 0.0 **** 0.06
15996 C 117.17423433908567 1.8414670792245005 69.25637278360568 C 0.0 **** -0.24
15997 H 117.73193893888285 1.8084563303717545 70.19220769869403 H 0.0 **** 0.06
15998 H 117.2219737379148 2.8486141325497982 68.84088517126904 H 0.0 **** 0.06
15999 H 116.13358862980587 1.574172729739857 69.44339534376618 H 0.0 **** 0.06
16000 H 117.60906600555177 1.135975094302438 68.54920481037959 H 0.0 **** 0.06
16001 C 110.73226374504736 106.19451287700869 40.59428746470414 C 0.0 **** -0.24
16002 H 110.84835177128161 106.39295542937711 39.528993500255154 H 0.0 **** 0.06
16003 H 111.27968675981302 106.94596305472265 41.16464076635043 H 0.0 **** 0.06
16004 H 111.12625192452592 105.20474312849245 40.82411406364227 H 0.0 **** 0.06
16005 H 109.67550060124293 106.23596897992803 40.857999757677675 H 0.0 **** 0.06
16006 C 17.183664601618602 68.08058753267068 4.848480444558959 C 0.0 **** -0.24
16007 H 18.062074217170448 68.58733577493246 5.2458276404328785 H 0.0 **** 0.06
16008 H 17.495478762759944 67.195017490282 4.292846685398956 H 0.0 **** 0.06
16009 H 16.643980084008263 68.75473970736141 4.183466467753021 H 0.0 **** 0.06
16010 H 16.532438632297442 67.78323150147475 5.6705870507195755 H 0.0 **** 0.06
16011 C 76.99159122067326 96.60942594185025 110.76146023616641 C 0.0 **** -0.24
16012 H 76.64676715594081 96.23945107458036 111.72718437281567 H 0.0 **** 0.06
16013 H 76.5370910828992 96.02041944944912 109.96418163729234 H 0.0 **** 0.06
16014 H 78.076496687185 96.5218117714287 110.70568391002396 H 0.0 **** 0.06
16015 H 76.70458114521398 97.65483817223608 110.65003945472628 H 0.0 **** 0.06
16016 C 112.52693038674113 95.56275605878093 76.18896193950167 C 0.0 **** -0.24
16017 H 112.7264737945037 94.63066853782888 75.6612561940253 H 0.0 **** 0.06
16018 H 112.98822886088354 96.39082912126545 75.65047343397487 H 0.0 **** 0.06
16019 H 112.94280903988508 95.50716617230705 77.19540264202138 H 0.0 **** 0.06
16020 H 111.45093299171808 95.72305610075043 76.24971207489727 H 0.0 **** 0.06
16021 C 88.7979882176341 85.39168250953117 79.12365659382613 C 0.0 **** -0.24
16022 H 89.14779249238825 84.36534415657445 79.24095007630768 H 0.0 **** 0.06
16023 H 87.72100384244177 85.4285659595277 79.29150613858491 H 0.0 **** 0.06
16024 H 89.02084265058696 85.73800481238644 78.11409830782844 H 0.0 **** 0.06
16025 H 89.30099730972424 86.0319498196481 79.84783248019465 H 0.0 **** 0.06
16026 C 105.67626067380732 92.24164542804004 106.05377099812893 C 0.0 **** -0.24
16027 H 104.7416702677263 92.08531121430028 105.5139630861654 H 0.0 **** 0.06
16028 H 105.56140258319982 93.07909317538164 106.74202605578418 H 0.0 **** 0.06
16029 H 106.47343416054838 92.46019154866642 105.342896057285 H 0.0 **** 0.06
16030 H 105.92604921209539 91.34107900413599 106.61478609076372 H 0.0 **** 0.06
16031 C 26.311042057875227 7.269335375676519 87.12319856002802 C 0.0 **** -0.24
16032 H 25.34936019441713 6.8088897689337955 87.34976636421413 H 0.0 **** 0.06
16033 H 26.88128120386847 6.612705100291123 86.46609344811958 H 0.0 **** 0.06
16034 H 26.863988775191643 7.428841978914534 88.04882845032529 H 0.0 **** 0.06
16035 H 26.146278641949777 8.226418857956446 86.62773071647837 H 0.0 **** 0.06
16036 C 114.98810607443852 11.60521266402435 10.821057472457024 C 0.0 **** -0.24
16037 H 114.83918082631963 12.458193489236521 10.158575668044804 H 0.0 **** 0.06
16038 H 115.75567193961871 11.847246170212486 11.556885994367647 H 0.0 **** 0.06
16039 H 115.30531828734375 10.74203665694398 10.235614272220488 H 0.0 **** 0.06
16040 H 114.05348136497146 11.375187581792318 11.332702123941257 H 0.0 **** 0.06
16041 C 86.53983182719253 71.69723013006342 91.05849010112465 C 0.0 **** -0.24
16042 H 85.50131415230749 71.55707457903313 90.758602473536 H 0.0 **** 0.06
16043 H 87.19295304537826 71.16973492361922 90.3625643379039 H 0.0 **** 0.06
16044 H 86.68460579399428 71.30128243196 92.0629829941779 H 0.0 **** 0.06
16045 H 86.77974178400896 72.76069309905768 91.04859649372935 H 0.0 **** 0.06
16046 C 78.31906956964394 52.596115751293695 23.684924977358207 C 0.0 **** -0.24
16047 H 79.02056676143081 53.28402111157857 24.15754222887159 H 0.0 **** 0.06
16048 H 78.0564008024644 52.969495797566054 22.694813557495024 H 0.0 **** 0.06
16049 H 77.41857084127611 52.51940215017612 24.294718567158725 H 0.0 **** 0.06
16050 H 78.78058551904556 51.61276141223277 23.591922660699765 H 0.0 **** 0.06
16051 C 26.293114812901052 40.00185788388856 112.57270137589344 C 0.0 **** -0.24
16052 H 27.24707356388211 40.49175407076743 112.37499044155967 H 0.0 **** 0.06
16053 H 25.574860635869243 40.27983629361111 111.80220673034694 H 0.0 **** 0.06
16054 H 25.920197275319907 40.31377710511205 113.54896062083986 H 0.0 **** 0.06
16055 H 26.432867342835465 38.92036738286285 112.56680934178317 H 0.0 **** 0.06
16056 C 119.75055528354841 7.546386060295845 91.22069860200583 C 0.0 **** -0.24
16057 H 119.4998287914512 8.186822757484862 90.37586600454182 H 0.0 **** 0.06
16058 H 120.75190133982437 7.7895300354315395 91.57653877761271 H 0.0 **** 0.06
16059 H 119.71974995414146 6.502636392138498 90.90726628261729 H 0.0 **** 0.06
16060 H 119.03089453101518 7.705943438364756 92.02473658033938 H 0.0 **** 0.06
16061 C 100.23901158198254 11.987702777327797 93.27731661822912 C 0.0 **** -0.24
16062 H 101.30507293463833 11.799378820797756 93.40632606118439 H 0.0 **** 0.06
16063 H 99.7132623266773 11.038026071172169 93.1731001978801 H 0.0 **** 0.06
16064 H 100.08200390124011 12.591077381333093 92.38310030351414 H 0.0 **** 0.06
16065 H 99.85699796750467 12.521454541813625 94.1474946331411 H 0.0 **** 0.06
16066 C 100.28373200460231 66.84864829950462 105.82620197674797 C 0.0 **** -0.24
16067 H 100.98918025834368 66.85459013652343 104.9945081282616 H 0.0 **** 0.06
16068 H 100.62206225348118 67.54511642793648 106.59361512342471 H 0.0 **** 0.06
16069 H 100.22576125022576 65.84512443071756 106.24592841314427 H 0.0 **** 0.06
16070 H 99.29913398620909 67.1513582126685 105.46875880589951 H 0.0 **** 0.06
16071 C 9.764955935273633 61.154527535257415 75.61618394371072 C 0.0 **** -0.24
16072 H 9.988726853504375 62.22078172649617 75.56472726908018 H 0.0 **** 0.06
16073 H 8.748227345785352 61.01418022202938 75.98134235074306 H 0.0 **** 0.06
16074 H 10.466159197650342 60.6698971239158 76.29601150466073 H 0.0 **** 0.06
16075 H 9.859981955012131 60.715737077209155 74.62299709713992 H 0.0 **** 0.06
16076 C 111.33075881070624 93.91381175536884 90.44579244073773 C 0.0 **** -0.24
16077 H 112.1504494885472 94.56977331454792 90.74053267791427 H 0.0 **** 0.06
16078 H 111.12690635395495 93.20613441124567 91.24962955402265 H 0.0 **** 0.06
16079 H 111.60761056811342 93.36964114073191 89.54333051588122 H 0.0 **** 0.06
16080 H 110.43944699118427 94.51077437065675 90.25211482943118 H 0.0 **** 0.06
16081 C 36.296679368121815 51.30108009612471 34.07327136453199 C 0.0 **** -0.24
16082 H 35.58371073527514 51.948617077467276 33.56389266511269 H 0.0 **** 0.06
16083 H 36.748748379588605 50.61950617585467 33.352549682513654 H 0.0 **** 0.06
16084 H 35.78087571956995 50.72648829653917 34.842786149032975 H 0.0 **** 0.06
16085 H 37.074625348353834 51.91052959349403 34.53474137822417 H 0.0 **** 0.06
16086 C 75.83366960317915 13.058434467509699 63.88016947298086 C 0.0 **** -0.24
16087 H 76.58882491714934 12.28627523659 64.03040514223403 H 0.0 **** 0.06
16088 H 75.77901148772389 13.689264503130289 64.76726646488291 H 0.0 **** 0.06
16089 H 74.86525957983434 12.589698887104475 63.70526060335116 H 0.0 **** 0.06
16090 H 76.10469322407147 13.666701592646675 63.01670060750099 H 0.0 **** 0.06
16091 C 43.81595517999341 70.58443519379736 43.81517767345096 C 0.0 **** -0.24
16092 H 44.53594678117071 71.31937207865198 43.45407236473446 H 0.0 **** 0.06
16093 H 44.180582353131456 70.14396816827625 44.742394948354956 H 0.0 **** 0.06
16094 H 43.68926203668394 69.80269731998987 43.06554314269965 H 0.0 **** 0.06
16095 H 42.85833650484244 71.07290146587144 43.99546440353558 H 0.0 **** 0.06
16096 C 103.13239435684568 40.568749375925705 31.956586967586922 C 0.0 **** -0.24
16097 H 103.87006995236686 40.05510000440333 32.573497167341955 H 0.0 **** 0.06
16098 H 103.52748405166403 40.69534192767165 30.94871119215692 H 0.0 **** 0.06
16099 H 102.91477260530678 41.5454136366663 32.38858211829708 H 0.0 **** 0.06
16100 H 102.21782446948089 39.975891887616456 31.916610380792605 H 0.0 **** 0.06
16101 C 106.72616398109176 38.929991797642344 6.470039797782647 C 0.0 **** -0.24
16102 H 105.99216389805122 38.93021697123736 5.6644766820352 H 0.0 **** 0.06
16103 H 107.51878394698366 39.64272149869666 6.239863444222948 H 0.0 **** 0.06
16104 H 107.15344597041587 37.93311908607926 6.57190711205061 H 0.0 **** 0.06
16105 H 106.2406786329056 39.214788810520375 7.403680407896189 H 0.0 **** 0.06
16106 C 70.29205561557427 78.21207935576896 88.16592185444082 C 0.0 **** -0.24
16107 H 71.29244597247975 78.26948548354312 87.73751110278639 H 0.0 **** 0.06
16108 H 70.3282578239984 77.65135186510253 89.09975973782352 H 0.0 **** 0.06
16109 H 69.62457472948356 77.70918861380187 87.46588019929703 H 0.0 **** 0.06
16110 H 69.92224345425572 79.21878349819985 88.36001938699869 H 0.0 **** 0.06
16111 C 53.067434107435076 40.22914054981193 57.32146711086685 C 0.0 **** -0.24
16112 H 52.539256077285245 39.976609534728794 58.24118729294776 H 0.0 **** 0.06
16113 H 53.74589261320088 39.41733655123315 57.05878961716613 H 0.0 **** 0.06
16114 H 53.63722330033593 41.14641812671056 57.46978517826443 H 0.0 **** 0.06
16115 H 52.3461444891245 40.37487190565487 56.51743055681328 H 0.0 **** 0.06
16116 C 63.960197077024354 103.89420033622156 99.19408731373377 C 0.0 **** -0.24
16117 H 64.36856689281112 104.15002821760297 98.21571295200619 H 0.0 **** 0.06
16118 H 64.77678541639182 103.76290724445866 99.90358622175728 H 0.0 **** 0.06
16119 H 63.390446770481155 102.96826990445052 99.1191838867596 H 0.0 **** 0.06
16120 H 63.30645112403007 104.6962844646855 99.5353384782951 H 0.0 **** 0.06
16121 C 37.82908367725861 45.995754904959824 11.865289561411089 C 0.0 **** -0.24
16122 H 37.815375244561494 45.56487091966143 10.863781577532563 H 0.0 **** 0.06
16123 H 38.54764619035234 46.81475720970104 11.89836936889418 H 0.0 **** 0.06
16124 H 38.11592119914468 45.22995951052934 12.584985121949899 H 0.0 **** 0.06
16125 H 36.83537439149222 46.372411974729715 12.111213393486594 H 0.0 **** 0.06
16126 C 117.88827142074786 17.49665472793359 34.601321829557094 C 0.0 **** -0.24
16127 H 117.23906095410747 16.626475366602406 34.50603405741845 H 0.0 **** 0.06
16128 H 117.30577898933679 18.404056869987755 34.44459276056466 H 0.0 **** 0.06
16129 H 118.68196563000814 17.440434312600445 33.855803928326964 H 0.0 **** 0.06
16130 H 118.32765273765477 17.513001468275874 35.598557987592926 H 0.0 **** 0.06
16131 C 81.18139101491028 30.65429176181766 82.64813460885674 C 0.0 **** -0.24
16132 H 80.45566140474034 30.99464587491775 81.9096654312277 H 0.0 **** 0.06
16133 H 80.73166021061971 29.87920478581748 83.26845831198179 H 0.0 **** 0.06
16134 H 81.48052844660131 31.494075691020782 83.27578571393951 H 0.0 **** 0.06
16135 H 82.05689564536962 30.250766219150364 82.13868593547218 H 0.0 **** 0.06
16136 C 4.0591398289900695 67.60254051412073 100.73316191107375 C 0.0 **** -0.24
16137 H 3.009443879909412 67.89639977676802 100.76288282598881 H 0.0 **** 0.06
16138 H 4.551091530559731 67.91883628256551 101.65282468875415 H 0.0 **** 0.06
16139 H 4.5436325679476965 68.07708474999674 99.87944959461885 H 0.0 **** 0.06
16140 H 4.130833328698657 66.51983714212008 100.6358813386484 H 0.0 **** 0.06
16141 C 26.047675412849742 84.92082390356893 56.821564682838414 C 0.0 **** -0.24
16142 H 27.125667886833497 85.07045608572298 56.88009290690107 H 0.0 **** 0.06
16143 H 25.60090335405198 85.11316524739738 57.79703311702531 H 0.0 **** 0.06
16144 H 25.839265077713634 83.89346304482271 56.52187991277944 H 0.0 **** 0.06
16145 H 25.6248653328 85.6062112363324 56.08725279464775 H 0.0 **** 0.06
16146 C 38.19726495637531 72.72396317756866 66.49530670661434 C 0.0 **** -0.24
16147 H 39.09586239768424 73.23765738852441 66.15569376966042 H 0.0 **** 0.06
16148 H 38.38100418513403 72.27696319066538 67.4723671156851 H 0.0 **** 0.06
16149 H 37.93505115429349 71.9420231444085 65.78173337023554 H 0.0 **** 0.06
16150 H 37.376868713178226 73.43731747938534 66.57027164690189 H 0.0 **** 0.06
16151 C 62.00728593153275 0.7719212505265887 118.10193083367574 C 0.0 **** -0.24
16152 H 61.094560405839246 0.18808130013287894 117.98361284292304 H 0.0 **** 0.06
16153 H 62.181361916689355 1.3592775996420414 117.20010090145692 H 0.0 **** 0.06
16154 H 62.8489926511395 0.09986646085175721 118.26701337896588 H 0.0 **** 0.06
16155 H 61.90201488506395 1.4401784138675282 118.95713756369287 H 0.0 **** 0.06
16156 C 83.73803411879535 111.3133248077225 82.19683366876308 C 0.0 **** -0.24
16157 H 84.21203179371838 111.99771821582306 82.90081380133628 H 0.0 **** 0.06
16158 H 83.8929484048113 110.28599610021428 82.52975639077073 H 0.0 **** 0.06
16159 H 84.17990399066616 111.44598174737524 81.20979758770926 H 0.0 **** 0.06
16160 H 82.66946551017071 111.52335089303492 82.14897649650894 H 0.0 **** 0.06
16161 C 60.16936103772118 25.066844250664957 109.23984992773609 C 0.0 **** -0.24
16162 H 60.65197810612697 26.015617409231936 109.4710323248749 H 0.0 **** 0.06
16163 H 60.594390308031684 24.280616655977468 109.86455663593694 H 0.0 **** 0.06
16164 H 60.32957851662953 24.82325620079918 108.18908667822882 H 0.0 **** 0.06
16165 H 59.09915667702163 25.147168228318804 109.43464701435224 H 0.0 **** 0.06
16166 C 93.23292389425202 1.6446680343667879 21.360033315234432 C 0.0 **** -0.24
16167 H 92.20800255310641 1.9539823982463815 21.157090085202242 H 0.0 **** 0.06
16168 H 93.68348396468016 1.2584755211718743 20.445701265279467 H 0.0 **** 0.06
16169 H 93.23262663441713 0.8665281796413922 22.123443046654245 H 0.0 **** 0.06
16170 H 93.80601087999426 2.501235684016933 21.714258201676216 H 0.0 **** 0.06
16171 C 86.13585161380956 26.610853127748065 69.6628216200005 C 0.0 **** -0.24
16172 H 85.87655384633834 27.402449737862348 70.36650312131175 H 0.0 **** 0.06
16173 H 85.94718122331423 25.64107300455938 70.12195238242288 H 0.0 **** 0.06
16174 H 87.191782032269 26.690646654117117 69.40148628005758 H 0.0 **** 0.06
16175 H 85.53017108857802 26.711350940362074 68.76317540037661 H 0.0 **** 0.06
16176 C 16.67648429171504 69.82103627913023 47.956524006008465 C 0.0 **** -0.24
16177 H 16.000076688007653 68.97253106345539 48.06496221632477 H 0.0 **** 0.06
16178 H 17.55305037634446 69.5158237200339 47.384765017916635 H 0.0 **** 0.06
16179 H 16.987258267693164 70.16677827046414 48.94228063189004 H 0.0 **** 0.06
16180 H 16.164514996246567 70.62852457099842 47.433259044473374 H 0.0 **** 0.06
16181 C 82.08715844891822 9.893096510726537 61.52056593367058 C 0.0 **** -0.24
16182 H 81.41764225395437 9.105834792776534 61.17679555103399 H 0.0 **** 0.06
16183 H 81.61304160648342 10.864261516550982 61.370599236322136 H 0.0 **** 0.06
16184 H 83.01803886722357 9.851827100651377 60.95559108931715 H 0.0 **** 0.06
16185 H 82.2989616541289 9.751975925905697 62.58062278772974 H 0.0 **** 0.06
16186 C 62.44687114594637 92.75530067176993 83.2446680595151 C 0.0 **** -0.24
16187 H 62.860937093395314 93.43679818538615 83.98763888510669 H 0.0 **** 0.06
16188 H 61.3601340769387 92.74871054107805 83.32342207091932 H 0.0 **** 0.06
16189 H 62.83110194482352 91.75057608818443 83.42053826650917 H 0.0 **** 0.06
16190 H 62.737950027500226 93.08605546174601 82.24747223808839 H 0.0 **** 0.06
16191 C 107.56946928554328 39.20205296808089 66.59050700290962 C 0.0 **** -0.24
16192 H 106.78213431945395 39.73005792409259 66.05376733338653 H 0.0 **** 0.06
16193 H 108.28812754570285 39.92141198081728 66.98315066551265 H 0.0 **** 0.06
16194 H 108.07613074807475 38.51720723519222 65.90958800316486 H 0.0 **** 0.06
16195 H 107.13226415752499 38.63828777813967 67.41460688566079 H 0.0 **** 0.06
16196 C 45.14239405971364 11.908994192472335 11.831999287231724 C 0.0 **** -0.24
16197 H 45.54800544075593 10.958500388017228 11.4829131087686 H 0.0 **** 0.06
16198 H 45.22963977489982 12.652713161982547 11.039549009704842 H 0.0 **** 0.06
16199 H 45.69961038345153 12.242061320565824 12.706986902007372 H 0.0 **** 0.06
16200 H 44.092970399055076 11.78051566348205 12.096140059100321 H 0.0 **** 0.06
16201 C 21.72978374153226 30.93464956536944 11.396671715072149 C 0.0 **** -0.24
16202 H 21.157611333370347 30.0156048902761 11.262963638215627 H 0.0 **** 0.06
16203 H 21.478713047079914 31.3817684778055 12.35818056963156 H 0.0 **** 0.06
16204 H 21.485195481287775 31.63329063495341 10.596288436822313 H 0.0 **** 0.06
16205 H 22.795145249801628 30.705593914252674 11.36769749256867 H 0.0 **** 0.06
16206 C 106.94695942564965 55.06786726169386 99.50318239827038 C 0.0 **** -0.24
16207 H 106.1673075084779 54.305389781412345 99.49226550431257 H 0.0 **** 0.06
16208 H 107.91296397174784 54.59736330251013 99.68376843710942 H 0.0 **** 0.06
16209 H 106.73845607135178 55.78740275565417 100.29547729267824 H 0.0 **** 0.06
16210 H 106.9658157213612 55.58155581951908 98.54226169039003 H 0.0 **** 0.06
16211 C 104.68944311431216 68.47865246674223 50.35749813414496 C 0.0 **** -0.24
16212 H 103.69950810818156 68.1135964415434 50.63251623185258 H 0.0 **** 0.06
16213 H 105.04759335353893 67.93367725246608 49.48436267782944 H 0.0 **** 0.06
16214 H 105.3768314680114 68.32488308533922 51.189546436304596 H 0.0 **** 0.06
16215 H 104.63216272264148 69.54196977568381 50.1252862219941 H 0.0 **** 0.06
16216 C 122.17388607898425 62.5743949561541 14.650326276348757 C 0.0 **** -0.24
16217 H 122.65203970949966 63.40676149375721 15.165672881153242 H 0.0 **** 0.06
16218 H 122.91499758286861 62.04202208577599 14.054137551921919 H 0.0 **** 0.06
16219 H 121.38902114471327 62.95523480757671 13.997202134273255 H 0.0 **** 0.06
16220 H 121.73943798778458 61.89463040175462 15.382329046209694 H 0.0 **** 0.06
16221 C 51.84761112067599 56.39622136481313 111.45772588247502 C 0.0 **** -0.24
16222 H 52.19383259921962 56.35523406290562 110.42449071327712 H 0.0 **** 0.06
16223 H 51.61298528492811 57.42762071796071 111.72056653846835 H 0.0 **** 0.06
16224 H 52.629232733335186 56.021515236390655 112.11790998538015 H 0.0 **** 0.06
16225 H 50.9551420958299 55.78091912120453 111.56563900567289 H 0.0 **** 0.06
16226 C 25.501168706995287 76.55347372074905 68.56102167528474 C 0.0 **** -0.24
16227 H 24.99577987682821 77.19793953671575 69.28130505893586 H 0.0 **** 0.06
16228 H 25.390122289673997 75.5120089072374 68.86527805604254 H 0.0 **** 0.06
16229 H 26.559236696719978 76.81057239051955 68.52404236357478 H 0.0 **** 0.06
16230 H 25.058320283931522 76.69305090277243 67.57556313384066 H 0.0 **** 0.06
16231 C 84.83545739659641 74.36032773388368 82.02007656104593 C 0.0 **** -0.24
16232 H 83.91264727982247 74.49876902320469 82.58410818248046 H 0.0 **** 0.06
16233 H 85.68278365941046 74.36140697072634 82.70690132555694 H 0.0 **** 0.06
16234 H 84.94810655824071 75.17331608968041 81.3022135678695 H 0.0 **** 0.06
16235 H 84.79800963978661 73.40925181295344 81.48970373045702 H 0.0 **** 0.06
16236 C 6.7052381316971434 20.266258112376363 21.653487022565358 C 0.0 **** -0.24
16237 H 5.760368217549299 20.313256832620368 22.194619241709518 H 0.0 **** 0.06
16238 H 7.317163990617104 21.12970991105061 21.916790900366124 H 0.0 **** 0.06
16239 H 6.509378576734491 20.27298339162718 20.580960114346937 H 0.0 **** 0.06
16240 H 7.232772602580894 19.350828817957165 21.920995349174603 H 0.0 **** 0.06
16241 C 84.81212408191169 34.44879359930931 112.47597549723622 C 0.0 **** -0.24
16242 H 84.80471365627312 33.414752098285824 112.81970555469076 H 0.0 **** 0.06
16243 H 85.39778523021391 35.05612503536776 113.16597018301132 H 0.0 **** 0.06
16244 H 83.79022154828925 34.82559793949927 112.43701638542657 H 0.0 **** 0.06
16245 H 85.25611778408188 34.497781732001144 111.48141282105959 H 0.0 **** 0.06
16246 C 61.224509653985685 72.00789003608503 71.3971812870706 C 0.0 **** -0.24
16247 H 60.484500557279695 71.20832201135232 71.43177378146137 H 0.0 **** 0.06
16248 H 60.73496345836822 72.96426016800874 71.5837044149128 H 0.0 **** 0.06
16249 H 61.693857728164225 72.02544308622842 70.41314396531368 H 0.0 **** 0.06
16250 H 61.984632923663334 71.83284598489163 72.1593829632838 H 0.0 **** 0.06
16251 C 77.92983205272711 17.455666629871672 7.580088975335713 C 0.0 **** -0.24
16252 H 77.13728730372429 18.13311933209974 7.8988268259306835 H 0.0 **** 0.06
16253 H 78.12270276376665 16.726878651914234 8.367861878192969 H 0.0 **** 0.06
16254 H 78.83697718715123 18.02698001232511 7.382645656972059 H 0.0 **** 0.06
16255 H 77.62185022146534 16.937511183087025 6.672576337559647 H 0.0 **** 0.06
16256 C 11.650390676889344 38.952344552913026 99.74345415373611 C 0.0 **** -0.24
16257 H 11.829109694937245 39.22308364334155 100.78338054913308 H 0.0 **** 0.06
16258 H 12.570747666413581 38.56558019933402 99.30543075443256 H 0.0 **** 0.06
16259 H 11.325629594658892 39.83237057548686 99.18918750861462 H 0.0 **** 0.06
16260 H 10.875900580414395 38.18623303643866 99.69653494853537 H 0.0 **** 0.06
16261 C 53.48384794893798 49.881350086599944 65.43833433278863 C 0.0 **** -0.24
16262 H 54.43281581125848 49.39347502106177 65.66333456880301 H 0.0 **** 0.06
16263 H 53.33245341581372 50.71480651938895 66.12492973630174 H 0.0 **** 0.06
16264 H 52.67197904176584 49.16305979152307 65.55167474229643 H 0.0 **** 0.06
16265 H 53.50074469015834 50.25296554334971 64.41359504777469 H 0.0 **** 0.06
16266 C 83.76970897103732 8.065846921256536 5.718425873791148 C 0.0 **** -0.24
16267 H 82.74418833459083 8.287187833548444 5.4220886064316005 H 0.0 **** 0.06
16268 H 83.94732192440009 8.447757513563033 6.723961596559093 H 0.0 **** 0.06
16269 H 84.4592780811081 8.541150080915827 5.022029160345994 H 0.0 **** 0.06
16270 H 83.926566472203 6.986563266178592 5.706148694078308 H 0.0 **** 0.06
16271 C 19.388941223313996 102.24832302261046 20.259329419804175 C 0.0 **** -0.24
16272 H 19.848094410074623 102.17574399571237 21.245142157951364 H 0.0 **** 0.06
16273 H 18.581676500841766 102.98033565930754 20.287987924993672 H 0.0 **** 0.06
16274 H 18.988148630972606 101.27499442174854 19.973132001014534 H 0.0 **** 0.06
16275 H 20.137870052078032 102.55998247389863 19.53110065191055 H 0.0 **** 0.06
16276 C 68.75551151642355 89.44991365564752 90.42907099645169 C 0.0 **** -0.24
16277 H 68.47570312664325 89.65802101203471 89.39626765967336 H 0.0 **** 0.06
16278 H 68.66769126508353 88.37973341790587 90.62043994848284 H 0.0 **** 0.06
16279 H 68.09280952515687 89.99493459648713 91.10192270461536 H 0.0 **** 0.06
16280 H 69.78499420420118 89.76653805571124 90.59734021687339 H 0.0 **** 0.06
16281 C 65.80562666941177 45.60727231451861 89.3802978390244 C 0.0 **** -0.24
16282 H 64.71898542347645 45.63232248430916 89.46877656162127 H 0.0 **** 0.06
16283 H 66.18372185238906 46.621566254943616 89.25720073394143 H 0.0 **** 0.06
16284 H 66.08602395652974 45.00661722767396 88.51452708106794 H 0.0 **** 0.06
16285 H 66.23283471285373 45.1670169370434 90.28197610152836 H 0.0 **** 0.06
16286 C 81.02225058647832 35.43951440304473 113.94700004052581 C 0.0 **** -0.24
16287 H 81.97628318241189 35.46395901486877 114.47281307650593 H 0.0 **** 0.06
16288 H 80.26879049981281 35.96232732940819 114.53702438752092 H 0.0 **** 0.06
16289 H 80.7152780438972 34.40384439872722 113.79818915807874 H 0.0 **** 0.06
16290 H 81.13009030960538 35.929456073421655 112.97871292047313 H 0.0 **** 0.06
16291 C 15.501619677304632 41.41211247590764 0.3389675939582588 C 0.0 **** -0.24
16292 H 15.115933924296513 40.60795674384196 0.9656686324312744 H 0.0 **** 0.06
16293 H 14.86446286244535 42.290148868256956 0.4433773649741255 H 0.0 **** 0.06
16294 H 15.508991161365032 41.08940262245038 -0.7012251933509788 H 0.0 **** 0.06
16295 H 16.51616589836064 41.660132655539 0.6499178341511822 H 0.0 **** 0.06
16296 C 101.21566450700976 118.68777248736708 28.1709236792598 C 0.0 **** -0.24
16297 H 102.03900966451977 119.39841824352047 28.247914140754183 H 0.0 **** 0.06
16298 H 101.52176386785777 117.72928843234445 28.590600518936043 H 0.0 **** 0.06
16299 H 100.94607648897272 118.55683951518591 27.12327347670604 H 0.0 **** 0.06
16300 H 100.35602968774327 119.06855319290202 28.722862252593004 H 0.0 **** 0.06
16301 C 32.72553512841756 40.986365944232546 41.51003236722792 C 0.0 **** -0.24
16302 H 31.840078436824967 40.89237934012243 42.13943616888551 H 0.0 **** 0.06
16303 H 33.3251061137434 40.07936667255473 41.58929838335786 H 0.0 **** 0.06
16304 H 33.3147412219426 41.842734872296774 41.836489886766586 H 0.0 **** 0.06
16305 H 32.41940977441169 41.129483464397026 40.47293407637295 H 0.0 **** 0.06
16306 C 22.40702181918377 75.82181562504257 62.09418881973585 C 0.0 **** -0.24
16307 H 21.92438926196698 75.0327283488815 61.516958144353964 H 0.0 **** 0.06
16308 H 22.537018439226046 75.48989638487387 63.12497721166426 H 0.0 **** 0.06
16309 H 21.78512184031564 76.71689762492679 62.075728908250056 H 0.0 **** 0.06
16310 H 23.380404764239472 76.04698446958537 61.65804230839336 H 0.0 **** 0.06
16311 C 98.15024459493091 15.673128243981154 24.582752933802396 C 0.0 **** -0.24
16312 H 98.6515204408442 14.723641714148613 24.767906730440586 H 0.0 **** 0.06
16313 H 97.76154502784584 15.687150852961054 23.563767052466474 H 0.0 **** 0.06
16314 H 98.85955517818758 16.490513694436345 24.713131837746687 H 0.0 **** 0.06
16315 H 97.32653215657521 15.792289643332822 25.286909545058023 H 0.0 **** 0.06
16316 C 81.40749113536799 29.594512650200812 53.918847783835986 C 0.0 **** -0.24
16317 H 81.49546742501616 28.518742849413435 53.77144845597101 H 0.0 **** 0.06
16318 H 80.92165953824605 30.04201273152934 53.05117300387735 H 0.0 **** 0.06
16319 H 82.40091026186684 30.026682432531288 54.0421193903596 H 0.0 **** 0.06
16320 H 80.8129712806352 29.791512637125003 54.81096676617193 H 0.0 **** 0.06
16321 C 117.79133566447189 81.75847273845096 27.113512941375603 C 0.0 **** -0.24
16322 H 118.40696888578046 82.63635311246506 26.91931233549036 H 0.0 **** 0.06
16323 H 116.76306201725404 82.0694647725746 27.299441475373754 H 0.0 **** 0.06
16324 H 118.17594469372213 81.23120780136813 27.98671092970585 H 0.0 **** 0.06
16325 H 117.81995730398114 81.09652416265183 26.247855371603634 H 0.0 **** 0.06
16326 C 72.57711596666857 113.11751912306994 52.46221540674634 C 0.0 **** -0.24
16327 H 72.98123244894816 112.970629071396 53.463904140713964 H 0.0 **** 0.06
16328 H 71.95522809160303 114.01226125174577 52.44944481552261 H 0.0 **** 0.06
16329 H 71.97507318795743 112.25265898296861 52.183476170987774 H 0.0 **** 0.06
16330 H 73.3968843651515 113.23397410124898 51.7528683997337 H 0.0 **** 0.06
16331 C 97.2243658681202 38.97991337994418 50.826411349049096 C 0.0 **** -0.24
16332 H 97.20329763682236 39.70366025476744 51.64201038977223 H 0.0 **** 0.06
16333 H 97.4851173677838 37.997269963686506 51.221268004466545 H 0.0 **** 0.06
16334 H 97.9665775616663 39.28491369647409 50.090011572130734 H 0.0 **** 0.06
16335 H 96.24212301705981 38.93405990959613 50.35607256581474 H 0.0 **** 0.06
16336 C 14.904714841561486 17.441002856771718 37.05007204700106 C 0.0 **** -0.24
16337 H 14.732208737319468 16.421805023293075 36.703874755661396 H 0.0 **** 0.06
16338 H 15.142620108279289 17.428666810295056 38.114022737001754 H 0.0 **** 0.06
16339 H 14.00651965146983 18.03697679547679 36.88507309822343 H 0.0 **** 0.06
16340 H 15.736422269154446 17.87719543333168 36.4966735211285 H 0.0 **** 0.06
16341 C 34.11209267081997 83.61308675562901 81.00183089169985 C 0.0 **** -0.24
16342 H 34.63781957554356 84.43088369906712 80.50843902039742 H 0.0 **** 0.06
16343 H 33.31972400989897 84.01796164122487 81.63111965146095 H 0.0 **** 0.06
16344 H 34.81354787340563 83.04912840083637 81.61698186831183 H 0.0 **** 0.06
16345 H 33.67744340388587 82.95397894177682 80.24910442352959 H 0.0 **** 0.06
16346 C 109.0834176158582 35.26510143810523 5.5269806586903485 C 0.0 **** -0.24
16347 H 109.40839765423101 34.71673640019753 4.642431098349476 H 0.0 **** 0.06
16348 H 109.22826233715605 34.64505031143091 6.4123262418930835 H 0.0 **** 0.06
16349 H 108.02827370482885 35.518907866657656 5.429201782160874 H 0.0 **** 0.06
16350 H 109.66923199131358 36.17864816012852 5.6231730279230305 H 0.0 **** 0.06
16351 C 36.44695784040485 25.98606350485008 52.445309556183304 C 0.0 **** -0.24
16352 H 36.42717051597168 27.035189858379823 52.74353529392221 H 0.0 **** 0.06
16353 H 35.74212585418522 25.826655787249663 51.628981676567236 H 0.0 **** 0.06
16354 H 36.16848590057819 25.362646191363467 53.294536452248934 H 0.0 **** 0.06
16355 H 37.45210043065805 25.72265285225737 52.11484567759862 H 0.0 **** 0.06
16356 C 58.98733790118436 20.215036641672214 40.9685353094286 C 0.0 **** -0.24
16357 H 59.06515237086896 21.302283080282535 40.93166665044973 H 0.0 **** 0.06
16358 H 58.69694595312012 19.838787299269114 39.98793445142854 H 0.0 **** 0.06
16359 H 58.2355641585643 19.930089324982475 41.70472102533347 H 0.0 **** 0.06
16360 H 59.95115017592613 19.7917281105251 41.25091254329283 H 0.0 **** 0.06
16361 C 49.63463969337667 103.82025867988352 74.53109483840876 C 0.0 **** -0.24
16362 H 49.28263455470568 103.05432483002073 73.83963415170223 H 0.0 **** 0.06
16363 H 50.36093399337901 103.38343588313154 75.21704279876457 H 0.0 **** 0.06
16364 H 48.790921026535926 104.2134114039956 75.09783185773802 H 0.0 **** 0.06
16365 H 50.10401906368364 104.62706857091337 73.96943314413721 H 0.0 **** 0.06
16366 C 47.551703737174286 88.99947977936151 110.88846597231702 C 0.0 **** -0.24
16367 H 48.021601749699364 88.34660842979775 110.15243742276562 H 0.0 **** 0.06
16368 H 47.38356246630594 89.98203008859454 110.44702904985951 H 0.0 **** 0.06
16369 H 48.20499773666598 89.09741255270691 111.75619191966615 H 0.0 **** 0.06
16370 H 46.598690409186425 88.57103819439246 111.19780478303926 H 0.0 **** 0.06
16371 C 97.35217230240272 84.24267263340874 85.54345312968317 C 0.0 **** -0.24
16372 H 96.98487857533979 83.38878229745916 86.1117230285798 H 0.0 **** 0.06
16373 H 98.38212118244417 84.05855656994896 85.23675173524265 H 0.0 **** 0.06
16374 H 97.31136376174229 85.13667468957453 86.16491838313397 H 0.0 **** 0.06
16375 H 96.72964317440685 84.38594929833977 84.66048801785868 H 0.0 **** 0.06
16376 C 67.38974120613949 18.355893800929287 0.6320569526670425 C 0.0 **** -0.24
16377 H 67.07650523158509 19.341970166624613 0.9748524414497126 H 0.0 **** 0.06
16378 H 67.30815228143177 17.64338259396282 1.4530795914492387 H 0.0 **** 0.06
16379 H 68.42425265391967 18.40176481911783 0.29138693880341293 H 0.0 **** 0.06
16380 H 66.74927387912064 18.036414790110236 -0.19046777844523888 H 0.0 **** 0.06
16381 C 15.963095282154882 115.73604982164362 120.53975326975376 C 0.0 **** -0.24
16382 H 16.70657282226125 116.07847750563121 119.82019400198477 H 0.0 **** 0.06
16383 H 16.076726733475112 116.29141085876915 121.47068620702294 H 0.0 **** 0.06
16384 H 16.106973658487902 114.67197279201771 120.73014045029018 H 0.0 **** 0.06
16385 H 14.964471301441591 115.90119575389978 120.13653987742161 H 0.0 **** 0.06
16386 C 1.3487265765598355 36.049492459791175 70.88558666250293 C 0.0 **** -0.24
16387 H 1.1296514353190705 35.653478050639606 69.8940510899404 H 0.0 **** 0.06
16388 H 2.424953045954103 36.01785953720347 71.05937431974914 H 0.0 **** 0.06
16389 H 0.8407336192581241 35.447092417602484 71.63815853904049 H 0.0 **** 0.06
16390 H 1.0001738725726188 37.0802012894573 70.95032032178642 H 0.0 **** 0.06
16391 C 51.646400640783014 19.469916617018953 3.361737645721462 C 0.0 **** -0.24
16392 H 52.17197948405385 20.371584201759276 3.6746122548293556 H 0.0 **** 0.06
16393 H 50.67109598062086 19.430240252047042 3.847975033490343 H 0.0 **** 0.06
16394 H 52.22953269032496 18.593113889802623 3.6445912475749083 H 0.0 **** 0.06
16395 H 51.5129944081323 19.48472812446721 2.2797720469912406 H 0.0 **** 0.06
16396 C 18.86991895232518 12.416149128540923 100.52969496828538 C 0.0 **** -0.24
16397 H 18.06364045833311 12.674577454981858 101.21578088891692 H 0.0 **** 0.06
16398 H 18.786663495649577 11.364537555531996 100.25232905602715 H 0.0 **** 0.06
16399 H 19.829934511063186 12.588324685499373 101.01591077446687 H 0.0 **** 0.06
16400 H 18.798195045329408 13.035105527818871 99.63525838847582 H 0.0 **** 0.06
16401 C 40.973702785154565 41.524008992601466 52.477506527083264 C 0.0 **** -0.24
16402 H 41.78883188599121 41.03557680022243 53.0124193507366 H 0.0 **** 0.06
16403 H 40.11156161704827 40.85736947714213 52.44320587623634 H 0.0 **** 0.06
16404 H 41.29396110402715 41.75672859781537 51.46184352471059 H 0.0 **** 0.06
16405 H 40.70197095785663 42.44532471154787 52.99335274997731 H 0.0 **** 0.06
16406 C 52.20518962755659 68.60043251852235 64.48432900486574 C 0.0 **** -0.24
16407 H 51.56891078141274 67.72966209355164 64.32588585644038 H 0.0 **** 0.06
16408 H 52.94801211451528 68.65666171490551 63.68936919897238 H 0.0 **** 0.06
16409 H 52.70833681746086 68.51212377637316 65.4470639551117 H 0.0 **** 0.06
16410 H 51.59390546055977 69.50352013869153 64.47563338087443 H 0.0 **** 0.06
16411 C 45.26055059011321 122.42267023292499 58.39074611769945 C 0.0 **** -0.24
16412 H 45.20825637851982 122.52527607560498 59.474475080556395 H 0.0 **** 0.06
16413 H 46.045242303160194 121.7123218066497 58.1303153954411 H 0.0 **** 0.06
16414 H 45.48414684975671 123.3922937028054 57.94482996105833 H 0.0 **** 0.06
16415 H 44.30355934326383 122.06085982602929 58.01335352220576 H 0.0 **** 0.06
16416 C 48.04003418232964 66.46135777244751 90.24863632204284 C 0.0 **** -0.24
16417 H 47.03785297386362 66.7822025329618 89.96451735003384 H 0.0 **** 0.06
16418 H 48.2177335416622 65.45223797771672 89.87428700070515 H 0.0 **** 0.06
16419 H 48.1291335947355 66.46737513112228 91.33490986382753 H 0.0 **** 0.06
16420 H 48.77426851591786 67.14349222439043 89.82001450367468 H 0.0 **** 0.06
16421 C 114.6928269234898 110.10806522820414 36.89754415840896 C 0.0 **** -0.24
16422 H 114.74368060867968 110.9259923655458 36.178429241278074 H 0.0 **** 0.06
16423 H 113.76515056527973 109.55417298217876 36.75160884629331 H 0.0 **** 0.06
16424 H 114.71948381807155 110.51185614596724 37.90959130551433 H 0.0 **** 0.06
16425 H 115.54212661068868 109.44086521959059 36.74962075737893 H 0.0 **** 0.06
16426 C 42.929084470226385 57.71125024347549 88.92449708749047 C 0.0 **** -0.24
16427 H 43.519662069160404 57.80095015414105 89.83642590800918 H 0.0 **** 0.06
16428 H 41.94766511459147 57.30108936264372 89.16591025624913 H 0.0 **** 0.06
16429 H 43.43970735241072 57.04777532925601 88.2259460984005 H 0.0 **** 0.06
16430 H 42.81097534792599 58.69570466300246 88.47067342866609 H 0.0 **** 0.06
16431 C 93.90260104378396 119.28658197021397 22.846762266866776 C 0.0 **** -0.24
16432 H 94.38225253793064 118.70767701713058 22.058542412595443 H 0.0 **** 0.06
16433 H 92.91547713863281 118.87290669346464 23.053107345160512 H 0.0 **** 0.06
16434 H 93.80241902622723 120.32403852574916 22.52559149325458 H 0.0 **** 0.06
16435 H 94.51165196871807 119.243717868646 23.749840769259976 H 0.0 **** 0.06
16436 C 47.144891719538634 67.81830750353083 21.655138167606452 C 0.0 **** -0.24
16437 H 47.17684098190202 66.7375040844604 21.519188480984482 H 0.0 **** 0.06
16438 H 46.552290672956104 68.05598966909838 22.537826246591308 H 0.0 **** 0.06
16439 H 46.69356727238778 68.28092504479505 20.77753326121436 H 0.0 **** 0.06
16440 H 48.15848891327869 68.19769948692758 21.784542876603666 H 0.0 **** 0.06
16441 C 69.92671158246509 62.936219156125134 11.196190508641507 C 0.0 **** -0.24
16442 H 70.9200238381506 63.1700314822107 10.813563186192027 H 0.0 **** 0.06
16443 H 69.17340028368113 63.37218836790342 10.540102056619816 H 0.0 **** 0.06
16444 H 69.81787332406788 63.34687987614066 12.19956685295898 H 0.0 **** 0.06
16445 H 69.79601863663646 61.85429824014392 11.229919603130071 H 0.0 **** 0.06
16446 C 20.50527064379895 99.88604234175418 101.89081501020212 C 0.0 **** -0.24
16447 H 20.04021983132219 100.7260526798257 101.37482808738116 H 0.0 **** 0.06
16448 H 20.49703573858602 100.07044515814724 102.96547587063696 H 0.0 **** 0.06
16449 H 21.53451153607756 99.77466035744624 101.54882319497912 H 0.0 **** 0.06
16450 H 19.94894796945613 98.97388534266125 101.67381535900111 H 0.0 **** 0.06
16451 C 84.07606023826469 6.629547165937737 71.7081184204267 C 0.0 **** -0.24
16452 H 83.09934826944556 7.076849558756891 71.89515445971315 H 0.0 **** 0.06
16453 H 84.78790719767227 7.411882499769405 71.44378436801964 H 0.0 **** 0.06
16454 H 83.99858904906671 5.916042691552917 70.88829852648911 H 0.0 **** 0.06
16455 H 84.41737426745175 6.115076036089562 72.60632847997098 H 0.0 **** 0.06
16456 C 65.90907323109491 18.80639164336725 27.07665619813585 C 0.0 **** -0.24
16457 H 64.87585376762445 18.487760924033722 26.942361453265647 H 0.0 **** 0.06
16458 H 66.3716786544519 18.213870008308646 27.86660272732557 H 0.0 **** 0.06
16459 H 65.93213366349741 19.860836894554126 27.351655384944166 H 0.0 **** 0.06
16460 H 66.45735925326665 18.6617482934617 26.145205219232167 H 0.0 **** 0.06
16461 C 85.43599854359664 117.99687569037039 73.36606645051157 C 0.0 **** -0.24
16462 H 84.55636141282486 118.423188962137 72.88311440580182 H 0.0 **** 0.06
16463 H 85.29166991885862 116.9249608878019 73.50150292005691 H 0.0 **** 0.06
16464 H 85.58094894025143 118.46972283556148 74.33769761513585 H 0.0 **** 0.06
16465 H 86.31259522771501 118.16998986558372 72.7420954222336 H 0.0 **** 0.06
16466 C 0.24401460381199058 6.81310079841904 39.31592405483954 C 0.0 **** -0.24
16467 H -0.26491247268710083 6.6241702131149935 38.370374674452194 H 0.0 **** 0.06
16468 H 0.16097080563824306 7.870673695887177 39.56848985090292 H 0.0 **** 0.06
16469 H 1.2958834094072245 6.542931892021528 39.222666842170355 H 0.0 **** 0.06
16470 H -0.21608899439716822 6.214016549679773 40.101400242459874 H 0.0 **** 0.06
16471 C 93.96115320356347 98.61980619053 15.883150055296937 C 0.0 **** -0.24
16472 H 94.14496383237179 98.83129985141872 16.936189548675372 H 0.0 **** 0.06
16473 H 94.70039942087135 97.90547669284362 15.521731340275096 H 0.0 **** 0.06
16474 H 94.03698747948772 99.54280903633426 15.30902115496599 H 0.0 **** 0.06
16475 H 92.96231127337398 98.20017706383987 15.766499793833589 H 0.0 **** 0.06
16476 C 49.17503341109 30.945718763540413 93.98228230991003 C 0.0 **** -0.24
16477 H 49.36295385511244 30.159447131103548 93.25091784935663 H 0.0 **** 0.06
16478 H 48.36924067225891 30.635779233121013 94.64870616573756 H 0.0 **** 0.06
16479 H 48.88761556769197 31.861425380726132 93.46536111996681 H 0.0 **** 0.06
16480 H 50.07947769160995 31.124854658689912 94.5629560207542 H 0.0 **** 0.06
16481 C 73.93303945852966 10.846091471760673 9.640155348042356 C 0.0 **** -0.24
16482 H 72.89208333146968 10.740918308679767 9.3386508958516 H 0.0 **** 0.06
16483 H 74.00446544446507 11.565006133090549 10.45705940145794 H 0.0 **** 0.06
16484 H 74.52235710543442 11.198327403110085 8.793595435954984 H 0.0 **** 0.06
16485 H 74.3146166720019 9.880235152445437 9.971666351056882 H 0.0 **** 0.06
16486 C 33.79812939563793 73.03209304607796 17.588238063664875 C 0.0 **** -0.24
16487 H 32.97337569689215 72.45950299349616 18.01286273662822 H 0.0 **** 0.06
16488 H 34.33057077098556 73.54790316708994 18.38693337145895 H 0.0 **** 0.06
16489 H 33.40669024838979 73.76241650761503 16.880994759275012 H 0.0 **** 0.06
16490 H 34.481819497881645 72.35647534753025 17.07299465611942 H 0.0 **** 0.06
16491 C 41.67854909813386 4.709953738583664 31.70243402207455 C 0.0 **** -0.24
16492 H 42.75009175215996 4.887840465239435 31.614361583328225 H 0.0 **** 0.06
16493 H 41.261032585064584 5.373908926105258 32.45967547992506 H 0.0 **** 0.06
16494 H 41.50514154318577 3.6729263737518636 31.99224132099347 H 0.0 **** 0.06
16495 H 41.198612941513574 4.904434547112146 30.74326321686204 H 0.0 **** 0.06
16496 C 14.691532837827708 90.94749483273065 94.6465154743509 C 0.0 **** -0.24
16497 H 15.52469625670875 90.5414773887772 94.07304736780691 H 0.0 **** 0.06
16498 H 14.558909097606943 92.00071897068835 94.39871515658291 H 0.0 **** 0.06
16499 H 14.90119296519839 90.8474122783405 95.71121881924154 H 0.0 **** 0.06
16500 H 13.7817770894751 90.39918400299638 94.40245230966195 H 0.0 **** 0.06
16501 C 76.12112982233637 28.722470389167682 120.88181053402062 C 0.0 **** -0.24
16502 H 76.28429767188553 28.162421854457335 121.80263735063744 H 0.0 **** 0.06
16503 H 75.09859612845668 28.566437323971456 120.53764535344146 H 0.0 **** 0.06
16504 H 76.81856385056773 28.37692479624205 120.11819990422094 H 0.0 **** 0.06
16505 H 76.28446961630013 29.783968790809865 121.06872602424798 H 0.0 **** 0.06
16506 C 55.34908595578017 81.99794839715045 37.39510952001828 C 0.0 **** -0.24
16507 H 54.73402846867782 81.74969712000743 38.26061848687877 H 0.0 **** 0.06
16508 H 55.799406941102234 81.08798563213267 36.997558330607404 H 0.0 **** 0.06
16509 H 56.1350259648724 82.69057000416902 37.69618382817842 H 0.0 **** 0.06
16510 H 54.72895582690299 82.46221114458572 36.62854325887528 H 0.0 **** 0.06
16511 C 36.22342365262378 97.79724491437156 84.15450419452901 C 0.0 **** -0.24
16512 H 36.25178020033812 98.47514853979425 85.00753039862721 H 0.0 **** 0.06
16513 H 35.25475655577563 97.29938074678586 84.11768811191621 H 0.0 **** 0.06
16514 H 37.01240493678864 97.05196330464975 84.25644043477152 H 0.0 **** 0.06
16515 H 36.37699960999484 98.36434656912269 83.23565418281675 H 0.0 **** 0.06
16516 C 24.791815044772335 14.266880111125715 112.83543503191177 C 0.0 **** -0.24
16517 H 25.01725643118479 13.210270900615 112.68674624146593 H 0.0 **** 0.06
16518 H 25.0351485678126 14.820982483629734 111.92912467630441 H 0.0 **** 0.06
16519 H 25.384227037406077 14.65005119048061 113.66641944538964 H 0.0 **** 0.06
16520 H 23.731717443013878 14.383661061145744 113.06096202579923 H 0.0 **** 0.06
16521 C 58.756666071595724 28.584175860256835 13.559704113611758 C 0.0 **** -0.24
16522 H 59.31252842328042 28.752317919168007 14.482131576613256 H 0.0 **** 0.06
16523 H 59.3748612620254 28.02112727117401 12.86044227068686 H 0.0 **** 0.06
16524 H 58.48943127916084 29.544631699802153 13.116962229736941 H 0.0 **** 0.06
16525 H 57.85074912343086 28.020591046194795 13.779846557681594 H 0.0 **** 0.06
16526 C 101.67285251638037 120.56150505936722 79.55872079889548 C 0.0 **** -0.24
16527 H 100.71751636966516 120.77148959015886 79.07913931681318 H 0.0 **** 0.06
16528 H 101.49916301183379 120.20977184172284 80.57525991792414 H 0.0 **** 0.06
16529 H 102.27347011529312 121.47109233935288 79.58571429770484 H 0.0 **** 0.06
16530 H 102.2010430882442 119.79384570391284 78.99338377446517 H 0.0 **** 0.06
16531 C 22.76244064384622 0.7282630208123351 112.0556198510611 C 0.0 **** -0.24
16532 H 23.76035985804465 1.1648850927466015 112.05195271499323 H 0.0 **** 0.06
16533 H 22.803399825986325 -0.26557771044952005 112.50341464381123 H 0.0 **** 0.06
16534 H 22.396039298829663 0.650339790513442 111.03141224436342 H 0.0 **** 0.06
16535 H 22.089830841333523 1.360014832751574 112.63499950231974 H 0.0 **** 0.06
16536 C 84.34258532723834 45.38575843384259 76.75263727506109 C 0.0 **** -0.24
16537 H 83.27161344922794 45.27571078746327 76.58705710591579 H 0.0 **** 0.06
16538 H 84.5114265736594 46.03330600285191 77.61445340675812 H 0.0 **** 0.06
16539 H 84.80325501286868 45.82939647296297 75.86943632723015 H 0.0 **** 0.06
16540 H 84.78440193364221 44.40828329074895 76.94027905012311 H 0.0 **** 0.06
16541 C 106.39793893786023 84.46419448102921 49.67869770251043 C 0.0 **** -0.24
16542 H 106.43627203685102 85.17132053937041 48.84966001995778 H 0.0 **** 0.06
16543 H 107.16184628763844 83.69945564808347 49.53910116114099 H 0.0 **** 0.06
16544 H 105.41521479134218 83.99438822664806 49.710610550129104 H 0.0 **** 0.06
16545 H 106.5791740371582 84.99265125387043 50.61482025101937 H 0.0 **** 0.06
16546 C 43.65485984039253 74.06119571098898 52.54449496760819 C 0.0 **** -0.24
16547 H 42.68130071519073 73.76865182589475 52.151557546040465 H 0.0 **** 0.06
16548 H 43.52156062488581 74.601420924497 53.48198053474604 H 0.0 **** 0.06
16549 H 44.158939314639554 74.70395465670572 51.82223393817091 H 0.0 **** 0.06
16550 H 44.25785340455462 73.17024275430936 52.720041901380085 H 0.0 **** 0.06
16551 C 77.42323136343208 69.66009823716465 16.021106919118125 C 0.0 **** -0.24
16552 H 76.92712173348286 70.35917790005439 15.347699909271881 H 0.0 **** 0.06
16553 H 77.8020492016013 68.81336475210279 15.449311027736428 H 0.0 **** 0.06
16554 H 76.7116846401068 69.30765929935913 16.767146548259944 H 0.0 **** 0.06
16555 H 78.2521245319763 70.16424944983845 16.519034482241494 H 0.0 **** 0.06
16556 C 90.11835014952823 89.94658536515439 75.12664136638125 C 0.0 **** -0.24
16557 H 89.17015009200833 89.40973986539498 75.13811530810989 H 0.0 **** 0.06
16558 H 90.22468713073917 90.4759547294911 74.17964840727188 H 0.0 **** 0.06
16559 H 90.9387357484695 89.2373877132498 75.24116797811541 H 0.0 **** 0.06
16560 H 90.13975252410233 90.66264482770126 75.94841927842322 H 0.0 **** 0.06
16561 C 97.10085672797575 74.78211473456977 32.534640460166884 C 0.0 **** -0.24
16562 H 96.59873793986304 75.73153522585301 32.347815406990065 H 0.0 **** 0.06
16563 H 96.74795823267388 74.3642800566299 33.47815518294868 H 0.0 **** 0.06
16564 H 98.17653003888216 74.9450297364416 32.58880385161649 H 0.0 **** 0.06
16565 H 96.87870028196531 74.08925624350806 31.724014981967642 H 0.0 **** 0.06
16566 C 94.36939496323339 30.515538861483265 82.42578756481032 C 0.0 **** -0.24
16567 H 95.3906773927394 30.8603978829575 82.58393154904499 H 0.0 **** 0.06
16568 H 94.26766878782661 30.132522778119352 81.41022338075948 H 0.0 **** 0.06
16569 H 93.67908301372864 31.346054034106913 82.5718494102318 H 0.0 **** 0.06
16570 H 94.13962465034871 29.72262915656333 83.13833720861444 H 0.0 **** 0.06
16571 C 28.209692557224848 70.7470205024357 95.39389524139926 C 0.0 **** -0.24
16572 H 27.220917409303077 71.10863862772086 95.67719226002589 H 0.0 **** 0.06
16573 H 28.598557660771164 70.10098654162192 96.18084579177821 H 0.0 **** 0.06
16574 H 28.879843773721298 71.59538179478434 95.25488230634005 H 0.0 **** 0.06
16575 H 28.136962725121577 70.18423878396163 94.4633334594838 H 0.0 **** 0.06
16576 C 29.80314096284934 64.63925386505065 110.58423639125027 C 0.0 **** -0.24
16577 H 30.171783678379597 65.66404608094189 110.60853686194872 H 0.0 **** 0.06
16578 H 29.402125344844023 64.42037171786671 109.59463232630475 H 0.0 **** 0.06
16579 H 29.018165837532024 64.51798753201797 111.33035945734969 H 0.0 **** 0.06
16580 H 30.622280051548387 63.9532740106672 110.80333226753464 H 0.0 **** 0.06
16581 C 80.51034665044699 58.11005592762254 17.14589074553112 C 0.0 **** -0.24
16582 H 80.89548220175527 58.6117109429174 16.258426406644126 H 0.0 **** 0.06
16583 H 79.42331495217203 58.052655480773524 17.087757997101313 H 0.0 **** 0.06
16584 H 80.79737309448228 58.67327561405321 18.03453161792159 H 0.0 **** 0.06
16585 H 80.92588830491081 57.10391366841307 17.203726980723612 H 0.0 **** 0.06
16586 C 11.904714528565972 49.93675317939005 45.398312180412375 C 0.0 **** -0.24
16587 H 12.421063513551207 50.54074967990144 46.14474577384024 H 0.0 **** 0.06
16588 H 10.8279215600053 50.03484786622241 45.532708655026624 H 0.0 **** 0.06
16589 H 12.192972513782411 48.89169750598809 45.5140106306462 H 0.0 **** 0.06
16590 H 12.180000156397675 50.28135394257035 44.40047382489965 H 0.0 **** 0.06
16591 C 56.432381637819596 50.958020386344266 3.6754360333571867 C 0.0 **** -0.24
16592 H 55.423228361943494 51.14204110362869 3.309074081266658 H 0.0 **** 0.06
16593 H 57.13333844469978 51.60834896880717 3.153209687012975 H 0.0 **** 0.06
16594 H 56.699457537332954 49.916262896940026 3.495828216874145 H 0.0 **** 0.06
16595 H 56.47347645383379 51.16396668783536 4.745597486343797 H 0.0 **** 0.06
16596 C 4.9085583216088935 105.76649753635871 1.315268213520163 C 0.0 **** -0.24
16597 H 3.8993265183789276 106.04423491448458 1.618382408756963 H 0.0 **** 0.06
16598 H 5.541741806175253 106.6531889202258 1.3052110770619585 H 0.0 **** 0.06
16599 H 4.880320133137303 105.32876377150615 0.3177007450538536 H 0.0 **** 0.06
16600 H 5.311707162290986 105.03918401875751 2.0192100646746436 H 0.0 **** 0.06
16601 C 95.94032756850112 93.49835804683931 61.52136666415691 C 0.0 **** -0.24
16602 H 96.08857197326466 93.4718929917091 60.442565831483385 H 0.0 **** 0.06
16603 H 94.89147430652082 93.70203213255147 61.738760021006094 H 0.0 **** 0.06
16604 H 96.56035225708462 94.28323612676286 61.955030056683775 H 0.0 **** 0.06
16605 H 96.21997553556622 92.53559311931738 61.949925733368794 H 0.0 **** 0.06
16606 C 100.45785489106981 24.902190290521446 100.82031084465666 C 0.0 **** -0.24
16607 H 99.93523894112764 23.97358588502169 100.58829657626796 H 0.0 **** 0.06
16608 H 101.39615614584142 24.67351236143608 101.32703894297691 H 0.0 **** 0.06
16609 H 99.83412861043598 25.516601550767007 101.46970322777258 H 0.0 **** 0.06
16610 H 100.6648290855187 25.442853976692987 99.89793376896012 H 0.0 **** 0.06
16611 C 0.9561957952151943 6.690920741437186 87.94453122735479 C 0.0 **** -0.24
16612 H 1.5126948992360383 6.752078220394544 87.00908499119345 H 0.0 **** 0.06
16613 H -0.09174023085611793 6.480525644925663 87.72977521928868 H 0.0 **** 0.06
16614 H 1.0352709095735975 7.638824526533892 88.4769452365793 H 0.0 **** 0.06
16615 H 1.36882354067302 5.8921810818844484 88.56060947901955 H 0.0 **** 0.06
16616 C 81.46913172581162 24.51649460401353 7.7037944978368955 C 0.0 **** -0.24
16617 H 82.39083172409002 23.93579673517769 7.696435513121685 H 0.0 **** 0.06
16618 H 80.91407229644267 24.329942204843576 6.7832020319199415 H 0.0 **** 0.06
16619 H 81.70843419939894 25.5783404613515 7.77480102108683 H 0.0 **** 0.06
16620 H 80.86244780639672 24.223393184962617 8.560271746321547 H 0.0 **** 0.06
16621 C 7.4031178643787285 33.39041919232227 69.09454776079423 C 0.0 **** -0.24
16622 H 7.4842755319893115 32.407523937495796 68.6315408264008 H 0.0 **** 0.06
16623 H 7.29895668283325 34.14973717407838 68.31924730140992 H 0.0 **** 0.06
16624 H 8.299566633330954 33.59130813276096 69.68216960578087 H 0.0 **** 0.06
16625 H 6.529153409475185 33.41393027566636 69.74625977150302 H 0.0 **** 0.06
16626 C 97.96568322969222 34.54915379549993 81.88425148989566 C 0.0 **** -0.24
16627 H 98.08698323548907 33.48407095198141 82.07976090570276 H 0.0 **** 0.06
16628 H 98.53163283321283 35.120266774197404 82.62119261481459 H 0.0 **** 0.06
16629 H 96.91000794453208 34.81271877706493 81.95255484717987 H 0.0 **** 0.06
16630 H 98.33356114039418 34.7794636438081 80.88479798914568 H 0.0 **** 0.06
16631 C 92.14312079830003 25.056705229591444 66.136402385288 C 0.0 **** -0.24
16632 H 93.18019319644506 25.049128186607845 65.80071716461376 H 0.0 **** 0.06
16633 H 92.03925373861867 24.414648727437225 67.01050487022383 H 0.0 **** 0.06
16634 H 91.50004693464135 24.688637685297465 65.33582414408065 H 0.0 **** 0.06
16635 H 91.8519763321278 26.074723429436347 66.39575733471452 H 0.0 **** 0.06
16636 C 8.737347882306413 23.506010344370964 60.769209687747605 C 0.0 **** -0.24
16637 H 8.438934831092784 22.722283055207185 60.07245983905912 H 0.0 **** 0.06
16638 H 7.984835460333933 23.60085657173687 61.5530505291849 H 0.0 **** 0.06
16639 H 8.827326478319698 24.45097270858099 60.23500278180532 H 0.0 **** 0.06
16640 H 9.697169277878206 23.24813295676529 61.21703809476986 H 0.0 **** 0.06
16641 C 62.83186220398892 65.47422124738415 101.17474420291768 C 0.0 **** -0.24
16642 H 63.18033569113828 65.75011281092253 100.178566355231 H 0.0 **** 0.06
16643 H 61.74323413673994 65.51858059127761 101.20326256932447 H 0.0 **** 0.06
16644 H 63.24454891269977 66.16743466023627 101.90798086011154 H 0.0 **** 0.06
16645 H 63.16142583471509 64.46190570284477 101.40686730541643 H 0.0 **** 0.06
16646 C 14.866899429444231 47.20371175109605 62.95342651696823 C 0.0 **** -0.24
16647 H 14.209837921333985 47.62280972129843 62.191523516536584 H 0.0 **** 0.06
16648 H 14.96571513720059 47.910404933201484 63.77724889956459 H 0.0 **** 0.06
16649 H 15.849129002419517 47.011571308518874 62.5191600473485 H 0.0 **** 0.06
16650 H 14.444382138711916 46.269299443754164 63.323269627404194 H 0.0 **** 0.06
16651 C 85.36363451323544 74.94558467287862 24.673854314752305 C 0.0 **** -0.24
16652 H 85.60904691337151 74.84183211467024 25.73008734166269 H 0.0 **** 0.06
16653 H 84.36089969095775 74.55646486772199 24.494355460456127 H 0.0 **** 0.06
16654 H 86.08262884815636 74.38568928546636 24.07705254912998 H 0.0 **** 0.06
16655 H 85.40057370795 75.99861246579692 24.39386302638428 H 0.0 **** 0.06
16656 C 30.276697266372366 6.151627500202466 52.713886664556526 C 0.0 **** -0.24
16657 H 31.313214467917618 6.427933782837584 52.90864828399208 H 0.0 **** 0.06
16658 H 30.073604831763106 5.173769482317525 53.14996379295667 H 0.0 **** 0.06
16659 H 30.108343866661855 6.113461075556842 51.638047672260086 H 0.0 **** 0.06
16660 H 29.614145275121913 6.8932677172377055 53.159866221703055 H 0.0 **** 0.06
16661 C 47.371592190060426 64.17674286612623 63.3820433429465 C 0.0 **** -0.24
16662 H 46.98620039422116 63.99438649964015 64.3855768454253 H 0.0 **** 0.06
16663 H 47.56685825390636 65.24186041765037 63.256600495018944 H 0.0 **** 0.06
16664 H 46.63496077762048 63.85223987613478 62.64629123442191 H 0.0 **** 0.06
16665 H 48.29600837379925 63.61737645457843 63.24151927090395 H 0.0 **** 0.06
16666 C 118.80396709876453 43.09893008486739 47.459194299194735 C 0.0 **** -0.24
16667 H 119.88367483277852 42.97476821806045 47.38507217134418 H 0.0 **** 0.06
16668 H 118.49599923078199 43.96016171616694 46.86507471628488 H 0.0 **** 0.06
16669 H 118.52658926937949 43.25808744877381 48.50110724587887 H 0.0 **** 0.06
16670 H 118.3091467256105 42.20242127309777 47.08335261160448 H 0.0 **** 0.06
16671 C 43.51927710894185 116.75219341827238 89.16516734245005 C 0.0 **** -0.24
16672 H 44.44886622616016 116.18284297263132 89.2010610019687 H 0.0 **** 0.06
16673 H 42.679472416226815 116.06777639004363 89.03406168395745 H 0.0 **** 0.06
16674 H 43.55362281244189 117.44999682006008 88.32887141354698 H 0.0 **** 0.06
16675 H 43.39588169064382 117.3053400669382 90.09595220192952 H 0.0 **** 0.06
16676 C 56.793212009555326 14.845665407540054 121.79303308453854 C 0.0 **** -0.24
16677 H 57.15780282400477 15.503801135779767 122.58099752955079 H 0.0 **** 0.06
16678 H 57.5685788456362 14.12497229094086 121.5334086934435 H 0.0 **** 0.06
16679 H 56.53920932865345 15.43800592006977 120.91367052242853 H 0.0 **** 0.06
16680 H 55.90638894882425 14.316252771220206 122.14260324167996 H 0.0 **** 0.06
16681 C 34.011261964147224 117.94560190444852 111.2708740087725 C 0.0 **** -0.24
16682 H 33.53800311651916 118.36566544237836 110.38381382373802 H 0.0 **** 0.06
16683 H 33.39703368996432 117.13284434646158 111.660286368181 H 0.0 **** 0.06
16684 H 34.11271224780601 118.7213318585284 112.03006899388987 H 0.0 **** 0.06
16685 H 34.99808913819341 117.56200708582335 111.00907570621791 H 0.0 **** 0.06
16686 C 121.86690846551926 97.7554334512262 77.75763345287044 C 0.0 **** -0.24
16687 H 122.20590571118734 97.51166189004766 76.7505026503766 H 0.0 **** 0.06
16688 H 120.90447033798145 97.27827522634857 77.94257942361443 H 0.0 **** 0.06
16689 H 121.76029741522984 98.8364387987767 77.85273708406643 H 0.0 **** 0.06
16690 H 122.59572453734759 97.39764500154828 78.48360010684294 H 0.0 **** 0.06
16691 C 20.940425175441923 103.09726095646357 54.76733050396629 C 0.0 **** -0.24
16692 H 21.13593130832865 102.24054127397028 55.41194111909721 H 0.0 **** 0.06
16693 H 21.338417880886453 102.8999443466302 53.770590697194734 H 0.0 **** 0.06
16694 H 21.423386457987846 103.98185169778208 55.182269944485626 H 0.0 **** 0.06
16695 H 19.866284052405117 103.26595205019075 54.7030872552524 H 0.0 **** 0.06
16696 C 85.24652309030361 19.155171567458098 98.19953735080821 C 0.0 **** -0.24
16697 H 84.40684189811356 18.516598212464515 97.924839870217 H 0.0 **** 0.06
16698 H 85.45154820915133 19.045476224796147 99.26474099158861 H 0.0 **** 0.06
16699 H 84.99850593007733 20.194933198345495 97.98276915219188 H 0.0 **** 0.06
16700 H 86.12687348332472 18.864063300899943 97.62765867520164 H 0.0 **** 0.06
16701 C 113.92722032855158 59.12559825318875 48.02090615414181 C 0.0 **** -0.24
16702 H 112.9161564437029 59.44080223833391 48.27875765596954 H 0.0 **** 0.06
16703 H 114.33359948366842 58.51408199703829 48.827062484482525 H 0.0 **** 0.06
16704 H 114.55653263246785 60.00401530905635 47.87860851570579 H 0.0 **** 0.06
16705 H 113.90326967231488 58.54297335270002 47.099716841863994 H 0.0 **** 0.06
16706 C 10.917284541138628 86.72275182624105 58.33579594751146 C 0.0 **** -0.24
16707 H 12.000764873305258 86.59959016240259 58.34169178163924 H 0.0 **** 0.06
16708 H 10.45988401748221 85.93362386488892 58.933536705342924 H 0.0 **** 0.06
16709 H 10.550292166051094 86.66142309334322 57.31178889047513 H 0.0 **** 0.06
16710 H 10.66007467967998 87.69413287130868 58.75773796158686 H 0.0 **** 0.06
16711 C 41.51430548372821 102.01002305616453 52.729916377535055 C 0.0 **** -0.24
16712 H 40.889837878026526 101.25760533599987 53.2114928591897 H 0.0 **** 0.06
16713 H 42.557062967464844 101.6931091153466 52.765965893497516 H 0.0 **** 0.06
16714 H 41.40465017863403 102.96062394492702 53.250186207301034 H 0.0 **** 0.06
16715 H 41.205625897245056 102.12647223427854 51.691130249028284 H 0.0 **** 0.06
16716 C 48.9802281210892 70.0295597832469 1.0197011473857458 C 0.0 **** -0.24
16717 H 47.91308856125539 70.24845684679985 0.977779978066124 H 0.0 **** 0.06
16718 H 49.43972838526116 70.61539388881044 1.816350434480455 H 0.0 **** 0.06
16719 H 49.4411149326192 70.28723441276168 0.06618960811537988 H 0.0 **** 0.06
16720 H 49.12602771406944 68.9679844678177 1.219118924797968 H 0.0 **** 0.06
16721 C 2.39570321797342 3.3350628533685764 56.02104121042245 C 0.0 **** -0.24
16722 H 3.3687826397734 3.431845079757947 55.53825156956836 H 0.0 **** 0.06
16723 H 1.7685267587737599 2.6584022540312215 55.44052914537261 H 0.0 **** 0.06
16724 H 1.919897170600109 4.31356145910758 56.080042651877534 H 0.0 **** 0.06
16725 H 2.528684023517229 2.9351380811199146 57.02669296859008 H 0.0 **** 0.06
16726 C 105.92295785237934 76.86224583153984 57.38998034370104 C 0.0 **** -0.24
16727 H 105.85373557918041 76.16664334686476 56.554374263087595 H 0.0 **** 0.06
16728 H 106.93852397780108 76.85192673174947 57.78779962605071 H 0.0 **** 0.06
16729 H 105.22365411862307 76.5635876859993 58.17027238656786 H 0.0 **** 0.06
16730 H 105.67800595100886 77.86757555384975 57.046437219105655 H 0.0 **** 0.06
16731 C 112.31800318634106 103.03567366330151 87.17819177288337 C 0.0 **** -0.24
16732 H 112.3218731769706 101.94579114940052 87.1721712540344 H 0.0 **** 0.06
16733 H 112.65080078495271 103.4053008073937 86.20797442862542 H 0.0 **** 0.06
16734 H 112.99072876124592 103.39693176817735 87.95612815844714 H 0.0 **** 0.06
16735 H 111.30705975991344 103.39369568888503 87.37729687827513 H 0.0 **** 0.06
16736 C 19.30452970158477 119.67083072693902 102.86394366143253 C 0.0 **** -0.24
16737 H 19.89688760065576 119.23064866117272 103.66548152225272 H 0.0 **** 0.06
16738 H 19.250248975725484 118.9730379418188 102.02754242114946 H 0.0 **** 0.06
16739 H 19.77129293628178 120.59840712547282 102.53299922598222 H 0.0 **** 0.06
16740 H 18.298276076083084 119.88049939241597 103.22788853213632 H 0.0 **** 0.06
16741 C 89.17363811619015 72.06755017834246 80.71334325630977 C 0.0 **** -0.24
16742 H 88.88509241322191 71.30919111514945 81.44107468326024 H 0.0 **** 0.06
16743 H 90.03807333640955 71.71748461126683 80.14786906700152 H 0.0 **** 0.06
16744 H 89.42832560048743 72.99059596082859 81.23256652923882 H 0.0 **** 0.06
16745 H 88.34362791163215 72.25076969420832 80.03173505409262 H 0.0 **** 0.06
16746 C 41.033783477830724 102.09946353326075 22.80506634273936 C 0.0 **** -0.24
16747 H 41.11381722354437 101.05335710333753 22.50977655810928 H 0.0 **** 0.06
16748 H 42.02005324160799 102.56310232127282 22.76592277750035 H 0.0 **** 0.06
16749 H 40.641895551726485 102.16224861305994 23.820086046230877 H 0.0 **** 0.06
16750 H 40.36071786856362 102.61930601607924 22.122704524795594 H 0.0 **** 0.06
16751 C 38.78650085909828 13.566872244452185 1.7921956038743758 C 0.0 **** -0.24
16752 H 38.33560629206855 13.031140506902574 2.626754560212305 H 0.0 **** 0.06
16753 H 38.23827409521718 13.341236309336267 0.8768776075897051 H 0.0 **** 0.06
16754 H 39.825790883494165 13.255157276506026 1.6794026104321347 H 0.0 **** 0.06
16755 H 38.747968284426236 14.63845963776771 1.9847047160155853 H 0.0 **** 0.06
16756 C 110.69338211591597 27.386561180544852 91.57782148748743 C 0.0 **** -0.24
16757 H 110.2695042780366 26.95249056072894 92.48264596330134 H 0.0 **** 0.06
16758 H 111.56983355276559 27.981222406385086 91.83644876067484 H 0.0 **** 0.06
16759 H 109.95068562406038 28.02428291559619 91.09888515088383 H 0.0 **** 0.06
16760 H 110.98373889386264 26.58961504496753 90.89358695164469 H 0.0 **** 0.06
16761 C 37.07151838968565 67.89678546594058 56.60111993819626 C 0.0 **** -0.24
16762 H 37.487265249532115 67.35968669595977 57.45345178175839 H 0.0 **** 0.06
16763 H 36.60407858996703 67.18651017401561 55.91860018565285 H 0.0 **** 0.06
16764 H 37.86929764087023 68.42882032822396 56.08313510718568 H 0.0 **** 0.06
16765 H 36.32444489119441 68.61044234464856 56.950774431133084 H 0.0 **** 0.06
16766 C 16.921171677971444 57.757309923405785 108.43179647052301 C 0.0 **** -0.24
16767 H 16.487875851619776 56.86590433178088 108.88452805036121 H 0.0 **** 0.06
16768 H 16.665343618897623 58.63087731868211 109.03259528753489 H 0.0 **** 0.06
16769 H 16.525562847885112 57.88062577554177 107.4237042249743 H 0.0 **** 0.06
16770 H 18.004960777281667 57.65245778338402 108.38720592161422 H 0.0 **** 0.06
16771 C 16.622074745255986 101.02007294742458 62.21683385125229 C 0.0 **** -0.24
16772 H 15.874599165742325 100.74310464619708 62.95963321584557 H 0.0 **** 0.06
16773 H 17.513391556968088 100.40813343920007 62.35242317198146 H 0.0 **** 0.06
16774 H 16.882181165703628 102.07228649694264 62.33764567943609 H 0.0 **** 0.06
16775 H 16.217535861102135 100.85914315326835 61.21755810269033 H 0.0 **** 0.06
16776 C 78.9908012386536 76.05133139826233 91.66292721770276 C 0.0 **** -0.24
16777 H 79.3155436966681 76.64423007016404 90.8086172275749 H 0.0 **** 0.06
16778 H 79.78449764859437 76.02556573039905 92.40926577528839 H 0.0 **** 0.06
16779 H 78.7662960064714 75.03609090480262 91.3362786997337 H 0.0 **** 0.06
16780 H 78.09681362615527 76.49851570155022 92.09792778552705 H 0.0 **** 0.06
16781 C 53.66091750786717 8.646837771974099 32.03704571979455 C 0.0 **** -0.24
16782 H 54.12207949343306 7.665837213431043 31.928143979868935 H 0.0 **** 0.06
16783 H 52.77957209181085 8.707065297423178 31.39666835898015 H 0.0 **** 0.06
16784 H 54.37383508330916 9.418389663050025 31.746726371644172 H 0.0 **** 0.06
16785 H 53.36591097439609 8.796912167614373 33.076314710573115 H 0.0 **** 0.06
16786 C 19.710442691634427 79.88847395207881 61.99784284559842 C 0.0 **** -0.24
16787 H 19.73218127750542 79.48453789628135 63.009962513136834 H 0.0 **** 0.06
16788 H 20.693923189340893 80.28519561478461 61.74372038851758 H 0.0 **** 0.06
16789 H 18.97019703971614 80.68673154249919 61.94113006427241 H 0.0 **** 0.06
16790 H 19.44513872185385 79.09611376422376 61.29695388053417 H 0.0 **** 0.06
16791 C 5.395108852618364 53.34047933068845 33.43471727561612 C 0.0 **** -0.24
16792 H 4.9591955840892865 54.336136164363495 33.35432321450935 H 0.0 **** 0.06
16793 H 4.598095069129442 52.601156123073906 33.51261683505072 H 0.0 **** 0.06
16794 H 6.025844287133282 53.291048378788105 34.32287749609509 H 0.0 **** 0.06
16795 H 5.997242646079712 53.135466251503686 32.54970448089361 H 0.0 **** 0.06
16796 C 87.79841292110828 122.34479054809421 101.72099134623713 C 0.0 **** -0.24
16797 H 87.9411236628683 121.81761783249226 100.77743174137223 H 0.0 **** 0.06
16798 H 88.45713648308114 121.91728456531746 102.47842989827089 H 0.0 **** 0.06
16799 H 86.76106257611266 122.24193399449692 102.04092254498653 H 0.0 **** 0.06
16800 H 88.03412978595432 123.4003477348206 101.58739985363798 H 0.0 **** 0.06
16801 C 58.11416102154456 66.40953530502932 21.815659925841146 C 0.0 **** -0.24
16802 H 59.189684857158994 66.29295085607453 21.678595227204198 H 0.0 **** 0.06
16803 H 57.66235709597879 66.7341051815927 20.878250867278325 H 0.0 **** 0.06
16804 H 57.92643011238951 67.15492701685818 22.587819478015035 H 0.0 **** 0.06
16805 H 57.6810374504918 65.45568276340603 22.11722326100454 H 0.0 **** 0.06
16806 C 16.740024732142643 103.646839115695 105.49050500020616 C 0.0 **** -0.24
16807 H 17.207809636140126 103.66686793737162 104.506011080225 H 0.0 **** 0.06
16808 H 16.765349889916337 104.64719999475139 105.92459481981604 H 0.0 **** 0.06
16809 H 17.28204697525362 102.95653745034411 106.13671210011972 H 0.0 **** 0.06
16810 H 15.705859411282177 103.31880923975837 105.39379136595454 H 0.0 **** 0.06
16811 C 38.99867238510828 96.25348015334185 72.88211577872838 C 0.0 **** -0.24
16812 H 38.81758164518237 97.32600502980455 72.80875581890663 H 0.0 **** 0.06
16813 H 40.02542361068282 96.03798362569995 72.5889516387555 H 0.0 **** 0.06
16814 H 38.31259052877587 95.72357475002332 72.22196501201057 H 0.0 **** 0.06
16815 H 38.83723828830571 95.92826548046861 73.91017492734466 H 0.0 **** 0.06
16816 C 75.53835319860536 50.37158464555836 59.764749548964296 C 0.0 **** -0.24
16817 H 76.12425211336051 49.85599308501517 60.525840179876944 H 0.0 **** 0.06
16818 H 75.03987715248127 49.63793114992231 59.13183939396587 H 0.0 **** 0.06
16819 H 76.19848131769407 50.98880486792311 59.15573299222721 H 0.0 **** 0.06
16820 H 74.7923210790882 51.00329178745281 60.24719571970399 H 0.0 **** 0.06
16821 C 60.97079063511368 114.19256433388819 96.50637564210294 C 0.0 **** -0.24
16822 H 59.92929112528295 113.88243725910664 96.59565688547457 H 0.0 **** 0.06
16823 H 61.5204281827808 113.45122138512716 95.92610558046741 H 0.0 **** 0.06
16824 H 61.410272580956764 114.27682684652032 97.49957778619512 H 0.0 **** 0.06
16825 H 61.01945728859793 115.1582427212665 96.00322761635857 H 0.0 **** 0.06
16826 C 88.65304116564954 0.49318398295588395 18.214176917238234 C 0.0 **** -0.24
16827 H 88.84885708395143 -0.3746250406609306 17.5841080546204 H 0.0 **** 0.06
16828 H 88.93646934930558 1.4006183119678326 17.68127025261856 H 0.0 **** 0.06
16829 H 89.23606162413984 0.41372160123233925 19.132396974589227 H 0.0 **** 0.06
16830 H 87.59161834609239 0.5310877711694388 18.460179064032744 H 0.0 **** 0.06
16831 C 50.906937728857685 73.43058110287956 59.956043657545116 C 0.0 **** -0.24
16832 H 51.139138602748886 74.34924791340873 59.41741468682546 H 0.0 **** 0.06
16833 H 51.24198666647371 72.57205106350426 59.37293853917188 H 0.0 **** 0.06
16834 H 49.829983592342586 73.3650211794596 60.11388809287974 H 0.0 **** 0.06
16835 H 51.415574107761614 73.43668408988526 60.920563729554665 H 0.0 **** 0.06
16836 C 67.49849726169037 99.77151471465851 104.79794319093256 C 0.0 **** -0.24
16837 H 68.43873742162674 99.362070221967 105.1664316487284 H 0.0 **** 0.06
16838 H 67.61041529700498 100.0527954984286 103.75137043209816 H 0.0 **** 0.06
16839 H 67.23180991014618 100.65017987225346 105.38465307456374 H 0.0 **** 0.06
16840 H 66.71407583625336 99.02003589710688 104.89103334424149 H 0.0 **** 0.06
16841 C 60.5362568389914 74.10550821739736 33.10905124147669 C 0.0 **** -0.24
16842 H 60.08458318569671 73.12625661474615 33.270663097815884 H 0.0 **** 0.06
16843 H 60.97194003051283 74.14315750761824 32.109748027411854 H 0.0 **** 0.06
16844 H 61.31597386201965 74.27209019152812 33.851913212764075 H 0.0 **** 0.06
16845 H 59.773415108775104 74.87801208564872 33.20218209644486 H 0.0 **** 0.06
16846 C 41.125902134133355 20.3185123046963 106.45197616000621 C 0.0 **** -0.24
16847 H 41.23947329808993 21.040810510404754 105.64399163931799 H 0.0 **** 0.06
16848 H 40.95870346387272 20.847835506370075 107.39035333079994 H 0.0 **** 0.06
16849 H 42.03109495160555 19.716475423579936 106.53084112521506 H 0.0 **** 0.06
16850 H 40.27508028479886 19.669692223590687 106.24364752231443 H 0.0 **** 0.06
16851 C 87.06901210360354 18.119242946544148 14.98005057929472 C 0.0 **** -0.24
16852 H 86.02974220411684 18.357757634227482 14.753070468851302 H 0.0 **** 0.06
16853 H 87.21719138709616 18.137948241745107 16.060383960585675 H 0.0 **** 0.06
16854 H 87.72147348079878 18.854958212116173 14.511425735388588 H 0.0 **** 0.06
16855 H 87.30585572668454 17.126702491645688 14.597700432302503 H 0.0 **** 0.06
16856 C 70.63943907105761 94.30675644387466 10.775767707952696 C 0.0 **** -0.24
16857 H 69.80551844184586 93.79248751756828 11.255137161675691 H 0.0 **** 0.06
16858 H 71.49802094089745 94.30741625297765 11.446996316382297 H 0.0 **** 0.06
16859 H 70.35200727364091 95.33357673446545 10.550825154196389 H 0.0 **** 0.06
16860 H 70.90027280042713 93.7915674092348 9.85164102951427 H 0.0 **** 0.06
16861 C 101.5231505521069 85.08803173949593 47.98627558678777 C 0.0 **** -0.24
16862 H 101.11594025798274 85.728315987206 47.204597957999724 H 0.0 **** 0.06
16863 H 101.17034254773313 84.06696500912113 47.84087827515705 H 0.0 **** 0.06
16864 H 101.19572284309046 85.4505325608356 48.960115058411006 H 0.0 **** 0.06
16865 H 102.61279276125276 85.10594615652471 47.93930585243146 H 0.0 **** 0.06
16866 C 52.39075334058424 77.69951594520057 113.13336410185559 C 0.0 **** -0.24
16867 H 52.843882085855796 77.15754336384492 113.96291587302727 H 0.0 **** 0.06
16868 H 51.31552586724018 77.51915427690545 113.12660311012615 H 0.0 **** 0.06
16869 H 52.824136076468164 77.35512270489102 112.19451383887971 H 0.0 **** 0.06
16870 H 52.57965660405972 78.76714955963763 113.25049315503284 H 0.0 **** 0.06
16871 C 22.06820889500915 117.64582084699094 80.68934215377749 C 0.0 **** -0.24
16872 H 22.870765636542615 118.36484806760745 80.85398317968767 H 0.0 **** 0.06
16873 H 22.21669909177899 117.15039471244631 79.72885902390976 H 0.0 **** 0.06
16874 H 21.109664241131725 118.16440710325504 80.68539866222773 H 0.0 **** 0.06
16875 H 22.076319350877554 116.90286301284377 81.4861225124676 H 0.0 **** 0.06
16876 C 50.552602499613386 39.13498203237494 41.60604440333418 C 0.0 **** -0.24
16877 H 49.78416875371977 38.438080338282035 41.27423476888194 H 0.0 **** 0.06
16878 H 50.22361016221038 39.6321004481075 42.51998181545133 H 0.0 **** 0.06
16879 H 50.72713569392761 39.88058341643786 40.82991560871341 H 0.0 **** 0.06
16880 H 51.47687823322883 38.59097933424156 41.800935571993335 H 0.0 **** 0.06
16881 C 68.1704246605048 48.16810671462014 1.5155635569374368 C 0.0 **** -0.24
16882 H 67.53360556828966 47.99371225962972 2.3832081751612293 H 0.0 **** 0.06
16883 H 67.84357532891806 47.53288161077094 0.6923893937656658 H 0.0 **** 0.06
16884 H 69.20318267233506 47.932487318973045 1.7703859644785354 H 0.0 **** 0.06
16885 H 68.09905544256753 49.21411566269461 1.2180625923093231 H 0.0 **** 0.06
16886 C 50.05815624385326 28.69558785908295 109.12799423243175 C 0.0 **** -0.24
16887 H 49.89930592471066 27.954328937741444 109.91156232057125 H 0.0 **** 0.06
16888 H 49.42000638351841 28.46512822419215 108.27505799369453 H 0.0 **** 0.06
16889 H 51.10283393951984 28.676854507854642 108.81671826118668 H 0.0 **** 0.06
16890 H 49.811320976132436 29.686684239783922 109.51060699595672 H 0.0 **** 0.06
16891 C 98.64134319121672 47.704757125050406 94.69379440585396 C 0.0 **** -0.24
16892 H 99.50655964897527 47.81759852718815 94.04193757709191 H 0.0 **** 0.06
16893 H 97.78294213819169 48.209055368635575 94.24949600518667 H 0.0 **** 0.06
16894 H 98.85879839062062 48.14776233452474 95.66655277471713 H 0.0 **** 0.06
16895 H 98.41583303488795 46.64545265390943 94.81885185165282 H 0.0 **** 0.06
16896 C 20.013849929827074 70.83990476623342 90.09750470091598 C 0.0 **** -0.24
16897 H 20.188959437530798 69.95466344739299 89.48564799446538 H 0.0 **** 0.06
16898 H 20.4972597107259 70.71146829837556 91.06684585925035 H 0.0 **** 0.06
16899 H 18.942051232347808 70.97679728572177 90.24028812740735 H 0.0 **** 0.06
16900 H 20.429043197747575 71.71466536015743 89.59674867610175 H 0.0 **** 0.06
16901 C 96.99884305555693 45.26967049438457 40.77200136082807 C 0.0 **** -0.24
16902 H 96.63064272114329 46.28887640704292 40.65610514543637 H 0.0 **** 0.06
16903 H 96.23463222049452 44.65972258793374 41.25439177992868 H 0.0 **** 0.06
16904 H 97.89988456177133 45.27641110717923 41.38616579640697 H 0.0 **** 0.06
16905 H 97.23125045383418 44.85290876007943 39.79250070602188 H 0.0 **** 0.06
16906 C 31.331941685826166 11.360354862084904 74.41144372231935 C 0.0 **** -0.24
16907 H 30.537826484442633 11.650476488234347 73.72394929971301 H 0.0 **** 0.06
16908 H 32.01279134109433 10.672660305244051 73.9111108323684 H 0.0 **** 0.06
16909 H 30.8964467854056 10.871745762217898 75.28327196763055 H 0.0 **** 0.06
16910 H 31.879742959327643 12.24764636394076 74.72836432497806 H 0.0 **** 0.06
16911 C 64.41101309927151 62.08920081950032 62.77757209067295 C 0.0 **** -0.24
16912 H 64.34083402015528 62.455818824305766 63.801805599415616 H 0.0 **** 0.06
16913 H 64.25570518710839 62.916687162652295 62.08401168783189 H 0.0 **** 0.06
16914 H 63.64991649371848 61.32710735076364 62.611630526904435 H 0.0 **** 0.06
16915 H 65.39848749348292 61.65760511421121 62.613025389818574 H 0.0 **** 0.06
16916 C 28.65513008228342 56.156174674347405 113.24517346469031 C 0.0 **** -0.24
16917 H 29.468876005901706 56.8801908613297 113.27794885070685 H 0.0 **** 0.06
16918 H 28.163919535486258 56.11625142680668 114.21826881275112 H 0.0 **** 0.06
16919 H 29.054624297217714 55.17178762774707 112.99911513298167 H 0.0 **** 0.06
16920 H 27.933123090376426 56.45507593294476 112.48560513906386 H 0.0 **** 0.06
16921 C 54.21297198828745 60.693316648590155 24.945757830235905 C 0.0 **** -0.24
16922 H 54.39939520652803 61.48143469226744 25.67526140092076 H 0.0 **** 0.06
16923 H 54.478286001355144 59.72818945271325 25.377647996180265 H 0.0 **** 0.06
16924 H 54.815681160846964 60.87238103480496 24.055813065264097 H 0.0 **** 0.06
16925 H 53.15609784503255 60.692992339395175 24.67464124645275 H 0.0 **** 0.06
16926 C 58.306840039194014 1.4231236579652204 76.43355257919893 C 0.0 **** -0.24
16927 H 59.244213907217784 1.6222281741439701 76.95296739646795 H 0.0 **** 0.06
16928 H 58.19061202785127 0.3490727683621344 76.29387515925058 H 0.0 **** 0.06
16929 H 58.31938203658507 1.9174877487049002 75.46159988651544 H 0.0 **** 0.06
16930 H 57.47512463631978 1.806155121234326 77.02543394738032 H 0.0 **** 0.06
16931 C 115.30601496536246 88.64138533631379 99.42520216979341 C 0.0 **** -0.24
16932 H 115.02328769840051 87.869571506655 98.70975769255347 H 0.0 **** 0.06
16933 H 114.7785038617132 88.47636693277332 100.36478351422969 H 0.0 **** 0.06
16934 H 115.04248168045689 89.62110009844886 99.02655028162573 H 0.0 **** 0.06
16935 H 116.38116797615868 88.59750139584051 99.59941852789098 H 0.0 **** 0.06
16936 C 20.25680285769471 65.9782372514014 32.629045094699784 C 0.0 **** -0.24
16937 H 20.530350385571523 65.61681158179664 31.638030294271474 H 0.0 **** 0.06
16938 H 20.384991056710703 65.1766711649015 33.35678113756879 H 0.0 **** 0.06
16939 H 19.215948286092498 66.30222949950672 32.623953116435885 H 0.0 **** 0.06
16940 H 20.897053709466036 66.81888479832187 32.897363386490625 H 0.0 **** 0.06
16941 C 7.542465315102376 63.53957763477195 97.55489684736992 C 0.0 **** -0.24
16942 H 8.256493264573677 63.17215785237703 96.81752587908838 H 0.0 **** 0.06
16943 H 6.654711782278483 62.90708414355746 97.54763162341206 H 0.0 **** 0.06
16944 H 7.261663315453546 64.56427063513908 97.3085744975399 H 0.0 **** 0.06
16945 H 7.999152166814255 63.51611093942662 98.5445849751581 H 0.0 **** 0.06
16946 C 73.92825728065185 87.3673860557582 47.03833970275292 C 0.0 **** -0.24
16947 H 72.99614003493667 87.57691506819836 46.51398663523787 H 0.0 **** 0.06
16948 H 73.72028982128836 86.764422088721 47.92280800345981 H 0.0 **** 0.06
16949 H 74.39419115625634 88.30493594976267 47.339573629213135 H 0.0 **** 0.06
16950 H 74.60203853008198 86.82194913679393 46.37733097219558 H 0.0 **** 0.06
16951 C 115.2949300331174 35.33995348722506 87.35933591020233 C 0.0 **** -0.24
16952 H 114.69209348889667 34.80010278977529 86.62928013186061 H 0.0 **** 0.06
16953 H 114.63826192769665 35.88760092972563 88.03623433320107 H 0.0 **** 0.06
16954 H 115.95037061250486 36.040097668913134 86.84148661396978 H 0.0 **** 0.06
16955 H 115.89613917257462 34.632081249586946 87.92942323979113 H 0.0 **** 0.06
16956 C 6.292748725362799 30.362471654943903 7.386176979433969 C 0.0 **** -0.24
16957 H 6.24644368650479 29.28046442186492 7.256838647542764 H 0.0 **** 0.06
16958 H 6.2181288016008125 30.84714179978083 6.412325405025314 H 0.0 **** 0.06
16959 H 7.238824191760017 30.63190687507445 7.855172689231921 H 0.0 **** 0.06
16960 H 5.467348156914255 30.68755361219842 8.019378164665483 H 0.0 **** 0.06
16961 C 100.11950739149577 13.626975187574175 98.04823854294966 C 0.0 **** -0.24
16962 H 99.07192827773605 13.324264989163282 98.04077386213851 H 0.0 **** 0.06
16963 H 100.18221429594874 14.715567170531699 98.02340811397701 H 0.0 **** 0.06
16964 H 100.62182018705164 13.21397211132961 97.17409760301788 H 0.0 **** 0.06
16965 H 100.59897749979629 13.254602552223645 98.95319110018008 H 0.0 **** 0.06
16966 C 71.67842041550821 45.82792222903788 117.84598833825737 C 0.0 **** -0.24
16967 H 71.03248392859794 46.69100281481449 118.01110393099808 H 0.0 **** 0.06
16968 H 71.89243219591481 45.732809628218426 116.78102414642781 H 0.0 **** 0.06
16969 H 71.17657687746967 44.9262995525201 118.19807465843536 H 0.0 **** 0.06
16970 H 72.6107135749408 45.963142977858624 118.39436042606441 H 0.0 **** 0.06
16971 C 51.16857362520631 39.75810798582049 108.29407432014409 C 0.0 **** -0.24
16972 H 51.6319060736638 38.98406505947631 107.68175025879088 H 0.0 **** 0.06
16973 H 51.94404299501224 40.3904533796635 108.72759911436668 H 0.0 **** 0.06
16974 H 50.59023502451561 39.292120988157535 109.09262035918567 H 0.0 **** 0.06
16975 H 50.50899234547555 40.36468784511669 107.67428283535827 H 0.0 **** 0.06
16976 C 49.76505210670817 65.23475557905502 59.28910512243957 C 0.0 **** -0.24
16977 H 49.355406704662016 65.67019335620702 60.20068437409983 H 0.0 **** 0.06
16978 H 49.424166100649416 64.20359987742665 59.19373843232564 H 0.0 **** 0.06
16979 H 50.853770249521546 65.2559253501704 59.333554585350434 H 0.0 **** 0.06
16980 H 49.42562934808441 65.8111232594492 58.42736518322141 H 0.0 **** 0.06
16981 C 23.440097034583005 20.41769741420927 103.73174093939781 C 0.0 **** -0.24
16982 H 22.83283404164439 20.156752368100967 104.59931200246137 H 0.0 **** 0.06
16983 H 23.893258419459528 19.516604434264565 103.32059226400094 H 0.0 **** 0.06
16984 H 24.22159815262745 21.11452423516201 104.03335570629838 H 0.0 **** 0.06
16985 H 22.80890379679846 20.885467361883173 102.97545358530613 H 0.0 **** 0.06
16986 C 91.82480248283682 110.55367056396096 54.57539179157652 C 0.0 **** -0.24
16987 H 92.86776841033904 110.52198759476266 54.88957383861697 H 0.0 **** 0.06
16988 H 91.19400093201594 110.79050819169436 55.43275841392324 H 0.0 **** 0.06
16989 H 91.53699518878352 109.58342799515879 54.16982739374862 H 0.0 **** 0.06
16990 H 91.69980204933083 111.31926239548761 53.80883113587919 H 0.0 **** 0.06
16991 C 89.38623871527898 16.148533451959196 97.9267738335227 C 0.0 **** -0.24
16992 H 89.12533888294507 17.044389252072595 97.36367901936609 H 0.0 **** 0.06
16993 H 88.6233286880074 15.961255399826339 98.6837457368373 H 0.0 **** 0.06
16994 H 90.35211383719857 16.29153254203339 98.41127836243072 H 0.0 **** 0.06
16995 H 89.44277450348247 15.296905568804245 97.24859332753769 H 0.0 **** 0.06
16996 C 68.57373059054311 92.31762646339865 112.40214052078025 C 0.0 **** -0.24
16997 H 69.32503768140003 91.69200588097334 111.92013048305688 H 0.0 **** 0.06
16998 H 69.04695907663614 92.91997740096937 113.17811559897648 H 0.0 **** 0.06
16999 H 67.8068218922761 91.68518421565736 112.85003784900853 H 0.0 **** 0.06
17000 H 68.11698127596316 92.97275890350926 111.66122378804897 H 0.0 **** 0.06
17001 C 12.101069708156032 4.194091088450243 94.88668827832225 C 0.0 **** -0.24
17002 H 12.616292526023386 5.055100488199198 94.46187497389573 H 0.0 **** 0.06
17003 H 11.045398967468032 4.233082442608325 94.61582639682712 H 0.0 **** 0.06
17004 H 12.198219574197196 4.212297742218647 95.97207785621919 H 0.0 **** 0.06
17005 H 12.54298932047243 3.277611008015601 94.49731522163412 H 0.0 **** 0.06
17006 C 73.56561588245918 69.94249504598514 38.19811949299921 C 0.0 **** -0.24
17007 H 73.07948539643891 70.01972427392494 39.171567501590545 H 0.0 **** 0.06
17008 H 73.40383649245882 70.86355333704904 37.63773461848396 H 0.0 **** 0.06
17009 H 73.14401891344951 69.10244498944769 37.64805957808062 H 0.0 **** 0.06
17010 H 74.6355481862164 69.7854873800292 38.338624459226025 H 0.0 **** 0.06
17011 C 90.56495452672928 69.49810213349588 14.203004068430346 C 0.0 **** -0.24
17012 H 90.24811482451113 69.47720972691971 15.245363026233214 H 0.0 **** 0.06
17013 H 90.67252119044713 68.47736292232256 13.834709266134404 H 0.0 **** 0.06
17014 H 91.5211788363228 70.01601129522658 14.12380595214363 H 0.0 **** 0.06
17015 H 89.817821139362 70.02257645442236 13.606954118677866 H 0.0 **** 0.06
17016 C 25.20300427905312 11.886876374482028 8.791029578468283 C 0.0 **** -0.24
17017 H 24.177941060801572 11.795818037884306 9.151326607625904 H 0.0 **** 0.06
17018 H 25.19640200817645 12.021427361047479 7.709364392913159 H 0.0 **** 0.06
17019 H 25.757122164647114 10.982945227247484 9.042459364786197 H 0.0 **** 0.06
17020 H 25.67695054407301 12.747186304805396 9.261975227418105 H 0.0 **** 0.06
17021 C 4.788241750079237 112.6806963170151 67.80607824358404 C 0.0 **** -0.24
17022 H 5.762094892144717 112.25886922467751 67.55783827388106 H 0.0 **** 0.06
17023 H 4.0580674306649485 111.87629040983896 67.90191561399456 H 0.0 **** 0.06
17024 H 4.476522563476053 113.3628918789731 67.0157571436458 H 0.0 **** 0.06
17025 H 4.857055491403202 113.22355541555399 68.74868568479434 H 0.0 **** 0.06
17026 C 85.56066834456567 53.232612347501345 117.22895249991976 C 0.0 **** -0.24
17027 H 85.14733322278155 52.36240305523907 116.7189083818478 H 0.0 **** 0.06
17028 H 85.4367082267745 54.113956697962266 116.59855402749827 H 0.0 **** 0.06
17029 H 86.62074460444182 53.070379823104474 117.4221622872377 H 0.0 **** 0.06
17030 H 85.03734553251797 53.383474641057944 118.17249045062118 H 0.0 **** 0.06
17031 C 8.636862050657925 73.32483928421652 107.34715411977044 C 0.0 **** -0.24
17032 H 8.885426817099557 74.37905916328202 107.22890404825318 H 0.0 **** 0.06
17033 H 9.0210864221919 72.96669825087645 108.30311324726995 H 0.0 **** 0.06
17034 H 9.08736541424679 72.7528484871674 106.53645853266295 H 0.0 **** 0.06
17035 H 7.553831354713267 73.20107263721536 107.3214927862831 H 0.0 **** 0.06
17036 C 7.514286889917827 18.140711338851133 68.09227241612169 C 0.0 **** -0.24
17037 H 6.820523023634934 17.337811532528846 67.84443237129693 H 0.0 **** 0.06
17038 H 7.324952832426874 18.48205374841865 69.11041442576558 H 0.0 **** 0.06
17039 H 7.373271143899245 18.969608030696236 67.3981297787866 H 0.0 **** 0.06
17040 H 8.537552996535283 17.773522560477772 68.01662204545823 H 0.0 **** 0.06
17041 C 45.0620722754214 22.34438222431197 55.77643412631945 C 0.0 **** -0.24
17042 H 44.473657896963516 21.434040991076472 55.65493277989476 H 0.0 **** 0.06
17043 H 46.123515715474745 22.093767513611567 55.77102143630902 H 0.0 **** 0.06
17044 H 44.805099383061815 22.81886255235031 56.72367934209786 H 0.0 **** 0.06
17045 H 44.84562512068713 23.028662898362825 54.95593078733307 H 0.0 **** 0.06
17046 C 31.915826494666923 57.030995840964266 37.17594099293088 C 0.0 **** -0.24
17047 H 32.405191835585235 56.77544920289722 36.23687096022442 H 0.0 **** 0.06
17048 H 32.22029540943605 58.032568730862806 37.4834888511974 H 0.0 **** 0.06
17049 H 32.20380918137056 56.31195970351976 37.94325655299149 H 0.0 **** 0.06
17050 H 30.83435704645506 57.005079665583224 37.04207793917824 H 0.0 **** 0.06
17051 C 69.34622438347984 51.14731151223316 67.67066486470281 C 0.0 **** -0.24
17052 H 68.64246307090426 51.69055058145335 67.03975403396254 H 0.0 **** 0.06
17053 H 68.82067324374023 50.35342445802502 68.20079545259452 H 0.0 **** 0.06
17054 H 69.79101894568348 51.83429760043299 68.39180710988589 H 0.0 **** 0.06
17055 H 70.13071193675907 50.71412990467422 67.05049305041524 H 0.0 **** 0.06
17056 C 59.28416888354579 113.29256068338194 62.45661935686434 C 0.0 **** -0.24
17057 H 58.216821091726814 113.1400680586213 62.29952140130388 H 0.0 **** 0.06
17058 H 59.7345069749023 113.6788774864966 61.54247766224995 H 0.0 **** 0.06
17059 H 59.75175413718168 112.34347953991215 62.720288065442446 H 0.0 **** 0.06
17060 H 59.43319361548788 114.00803446580888 63.265861640811295 H 0.0 **** 0.06
17061 C 93.33659269224378 56.984822833150304 67.8340130891585 C 0.0 **** -0.24
17062 H 92.30500304092143 57.082021434317255 68.17606497513606 H 0.0 **** 0.06
17063 H 93.4281294448437 57.40970110079212 66.83463198803767 H 0.0 **** 0.06
17064 H 93.61232980925863 55.930296844724126 67.80861339467177 H 0.0 **** 0.06
17065 H 93.9964853203991 57.517622656189246 68.51826316424254 H 0.0 **** 0.06
17066 C 35.80658111040671 20.415084257030667 106.19743967797609 C 0.0 **** -0.24
17067 H 35.184819039963145 21.14518816068911 106.71624637181935 H 0.0 **** 0.06
17068 H 35.17333249701426 19.627207288824145 105.78756860394148 H 0.0 **** 0.06
17069 H 36.518410949528544 19.980826250366132 106.89931814500457 H 0.0 **** 0.06
17070 H 36.346424163186725 20.907156623181088 105.38904600143388 H 0.0 **** 0.06
17071 C 73.04038017779698 120.04235658867515 45.788097133579555 C 0.0 **** -0.24
17072 H 72.18052252320456 120.18522141246234 46.44365923161942 H 0.0 **** 0.06
17073 H 72.85101194084427 120.52648040485938 44.829765270254114 H 0.0 **** 0.06
17074 H 73.20219806155993 118.97620675490879 45.629955992223614 H 0.0 **** 0.06
17075 H 73.92580824050518 120.4801356077596 46.24942004088496 H 0.0 **** 0.06
17076 C 79.75162279984235 51.11055763487536 20.619990335009643 C 0.0 **** -0.24
17077 H 79.52386497830236 50.06937726935746 20.847790543002994 H 0.0 **** 0.06
17078 H 80.78690547215407 51.32180524739988 20.88673990909529 H 0.0 **** 0.06
17079 H 79.08866068040118 51.75979042635578 21.191875933931236 H 0.0 **** 0.06
17080 H 79.60591888655077 51.288779262020455 19.554300613310016 H 0.0 **** 0.06
17081 C 1.2883844859574651 56.08684151858094 1.4219414219114377 C 0.0 **** -0.24
17082 H 2.0871685108395184 56.34488756245872 2.117029497355551 H 0.0 **** 0.06
17083 H 1.6778938216726829 56.08730091633433 0.40416474366541877 H 0.0 **** 0.06
17084 H 0.48555984035195365 56.81895102021542 1.50442385229438 H 0.0 **** 0.06
17085 H 0.9040008702356204 55.09563429694086 1.6640109365467968 H 0.0 **** 0.06
17086 C 1.4546039300777132 44.73043219306385 68.11779709726065 C 0.0 **** -0.24
17087 H 0.36597500841210007 44.72684149781861 68.05229610440719 H 0.0 **** 0.06
17088 H 1.8039380374554153 43.74167708277322 68.41452781885332 H 0.0 **** 0.06
17089 H 1.7695854399236648 45.46512387379792 68.85897516257941 H 0.0 **** 0.06
17090 H 1.8760329528561073 44.98916458507192 67.14726519838388 H 0.0 **** 0.06
17091 C 27.606239254933527 31.15381893260715 35.07663536837666 C 0.0 **** -0.24
17092 H 28.040575051204897 30.25690385815642 35.51847460030649 H 0.0 **** 0.06
17093 H 27.765146288679396 32.000512647595315 35.74493580511506 H 0.0 **** 0.06
17094 H 26.5376017992959 31.004319016228322 34.92713013834116 H 0.0 **** 0.06
17095 H 28.082950468645095 31.35365230860856 34.116505053416454 H 0.0 **** 0.06
17096 C 66.27252680352657 18.56358323162128 49.47825961292519 C 0.0 **** -0.24
17097 H 65.9211370655363 17.90370157250987 48.68497745417144 H 0.0 **** 0.06
17098 H 66.7990444792344 17.977314672080542 50.231378755801614 H 0.0 **** 0.06
17099 H 65.4213866461007 19.065034648775757 49.938207437340125 H 0.0 **** 0.06
17100 H 66.9493796295481 19.30774114835582 49.058504475277395 H 0.0 **** 0.06
17101 C 110.26188173544745 91.72391635019599 70.17765839310044 C 0.0 **** -0.24
17102 H 110.8036807959003 90.90594416949634 70.65291352511625 H 0.0 **** 0.06
17103 H 109.77410330057415 91.3591930704157 69.27405824915508 H 0.0 **** 0.06
17104 H 110.96024915723365 92.51944068647126 69.91791987028265 H 0.0 **** 0.06
17105 H 109.51084336441173 92.11097461379492 70.86614904897587 H 0.0 **** 0.06
17106 C 9.329293622983812 19.074787214553385 18.07469748766519 C 0.0 **** -0.24
17107 H 9.82727041944733 19.90630029722703 18.573841011067515 H 0.0 **** 0.06
17108 H 9.18239818293813 19.317746015429524 17.022372977895202 H 0.0 **** 0.06
17109 H 8.362508450739 18.89553553810432 18.544784052812304 H 0.0 **** 0.06
17110 H 9.94527466273891 18.178960443729164 18.15992627194197 H 0.0 **** 0.06
17111 C 7.607808547458237 7.366271749496139 112.11234550361115 C 0.0 **** -0.24
17112 H 7.781709384522621 7.835854182704303 111.14399485127689 H 0.0 **** 0.06
17113 H 6.84806165497228 6.591261465962216 112.00783288924313 H 0.0 **** 0.06
17114 H 7.266985734160244 8.117153411306585 112.82402210009863 H 0.0 **** 0.06
17115 H 8.536157647433143 6.919918083688817 112.47121536867891 H 0.0 **** 0.06
17116 C 27.09119952720731 107.02673982631694 112.07239116879168 C 0.0 **** -0.24
17117 H 26.43764692301845 107.71662297475899 112.60598028658197 H 0.0 **** 0.06
17118 H 26.994556899701138 107.19283877315667 110.99893994303588 H 0.0 **** 0.06
17119 H 26.807273717614997 106.00077476461507 112.30938911686238 H 0.0 **** 0.06
17120 H 28.12391792771634 107.19658333767086 112.37514016594537 H 0.0 **** 0.06
17121 C 30.470107021476394 72.91278493192823 111.33687591369161 C 0.0 **** -0.24
17122 H 30.256766358371635 73.97900859547704 111.42295193779182 H 0.0 **** 0.06
17123 H 29.5379957138303 72.3509228962628 111.39593255521933 H 0.0 **** 0.06
17124 H 31.130924019926567 72.60866499806082 112.14923922228635 H 0.0 **** 0.06
17125 H 30.95460208358503 72.71501925534577 110.3810682118903 H 0.0 **** 0.06
17126 C 61.04130007802837 10.449142071761628 104.64018125053556 C 0.0 **** -0.24
17127 H 61.57520634063965 11.29149954745614 105.0808003059621 H 0.0 **** 0.06
17128 H 60.17853053039585 10.201707120203395 105.2590461862334 H 0.0 **** 0.06
17129 H 61.70653153474075 9.587804991084852 104.5825474731486 H 0.0 **** 0.06
17130 H 60.705730817321125 10.715820850942976 103.63779068200836 H 0.0 **** 0.06
17131 C 89.11551754299845 39.682047074112944 98.94502350197044 C 0.0 **** -0.24
17132 H 88.58421610921451 40.14427086244331 99.77752523443027 H 0.0 **** 0.06
17133 H 88.400169047513 39.401379924628515 98.17104243593818 H 0.0 **** 0.06
17134 H 89.63829820944801 38.792969259858495 99.29606777588751 H 0.0 **** 0.06
17135 H 89.83533399801243 40.38993095015698 98.53479212077855 H 0.0 **** 0.06
17136 C 92.61314306289654 8.085003015417698 92.68900937113898 C 0.0 **** -0.24
17137 H 92.81686243134882 8.825682228031582 91.91491834287302 H 0.0 **** 0.06
17138 H 93.37957557256615 8.148176784399908 93.46134828757397 H 0.0 **** 0.06
17139 H 92.62098000182215 7.088053631967199 92.24921214655365 H 0.0 **** 0.06
17140 H 91.63614813253875 8.280266410135141 93.12999597746443 H 0.0 **** 0.06
17141 C 20.408211626785818 77.5413473265144 35.68426909425364 C 0.0 **** -0.24
17142 H 19.55955534155945 77.31496121047778 35.0393412486458 H 0.0 **** 0.06
17143 H 21.278158089825034 77.77625047291565 35.070551877590816 H 0.0 **** 0.06
17144 H 20.62863390989434 76.67793347394993 36.31245911188671 H 0.0 **** 0.06
17145 H 20.16727660404083 78.39689950026212 36.315707101533434 H 0.0 **** 0.06
17146 C 119.07561297905887 114.41054669580248 41.62191685993074 C 0.0 **** -0.24
17147 H 119.55751901728712 115.13449552239982 40.963941282314664 H 0.0 **** 0.06
17148 H 118.64929526721406 113.6048877606683 41.0238750224808 H 0.0 **** 0.06
17149 H 118.2833739381718 114.9037058388964 42.1856007410503 H 0.0 **** 0.06
17150 H 119.8128529873292 114.00137018609557 42.312382543608834 H 0.0 **** 0.06
17151 C 42.86337338091474 25.5772237009715 80.79279468453555 C 0.0 **** -0.24
17152 H 43.23770436082276 24.77972713163308 80.15188080475664 H 0.0 **** 0.06
17153 H 42.0930485399206 26.13833573054893 80.26305219833537 H 0.0 **** 0.06
17154 H 43.683204820276416 26.245356998583475 81.05787292801566 H 0.0 **** 0.06
17155 H 42.43947090952392 25.14585435480194 81.69973366962256 H 0.0 **** 0.06
17156 C 93.8224077147838 75.38054077930528 74.50133084260989 C 0.0 **** -0.24
17157 H 93.73741842159268 75.78554490720146 73.49304537024136 H 0.0 **** 0.06
17158 H 94.82115799878636 75.57788925577057 74.89008082500453 H 0.0 **** 0.06
17159 H 93.64706193642706 74.30447637615214 74.47606319508287 H 0.0 **** 0.06
17160 H 93.08094452815726 75.85378712825471 75.14543129489164 H 0.0 **** 0.06
17161 C 43.709094228243686 120.39866840139683 106.8059383851261 C 0.0 **** -0.24
17162 H 43.8343395726958 121.32269324682267 106.24254176438524 H 0.0 **** 0.06
17163 H 43.52752909439184 120.63303970375722 107.85457764274574 H 0.0 **** 0.06
17164 H 44.61395009562111 119.7959423296378 106.71942046690461 H 0.0 **** 0.06
17165 H 42.86193715184609 119.84084555416536 106.40564381560142 H 0.0 **** 0.06
17166 C 17.745353080992697 97.18967951204087 91.22287216251908 C 0.0 **** -0.24
17167 H 18.542110595849664 97.68138606788773 91.77982564514465 H 0.0 **** 0.06
17168 H 17.22759001117382 97.92406440305447 90.6045992039771 H 0.0 **** 0.06
17169 H 17.038718724499738 96.7399880842288 91.92133168699385 H 0.0 **** 0.06
17170 H 18.1717681152339 96.41442342160312 90.58721244549727 H 0.0 **** 0.06
17171 C 37.4792991273585 70.74597545990991 38.58252663203403 C 0.0 **** -0.24
17172 H 38.22367141078547 70.03590357157793 38.94417839938893 H 0.0 **** 0.06
17173 H 37.31143626996756 70.58442456478207 37.517186047471384 H 0.0 **** 0.06
17174 H 37.838171164421496 71.76203962273854 38.74382311829724 H 0.0 **** 0.06
17175 H 36.54518874112594 70.59969458312423 39.12494881537114 H 0.0 **** 0.06
17176 C 115.7867844716759 99.47061431458923 103.71848253184743 C 0.0 **** -0.24
17177 H 115.62179552876108 98.39830231974611 103.81506756673579 H 0.0 **** 0.06
17178 H 114.827919268784 99.97712091835476 103.60239727440845 H 0.0 **** 0.06
17179 H 116.40941336939431 99.66634580857897 102.84496228714224 H 0.0 **** 0.06
17180 H 116.28866019325801 99.84162422632289 104.61280719533289 H 0.0 **** 0.06
17181 C 101.36927852539193 66.38234270024896 61.984279122202054 C 0.0 **** -0.24
17182 H 100.4729056438851 66.56644863414704 62.578362377842154 H 0.0 **** 0.06
17183 H 101.09614720945018 66.29586014132394 60.93255853878202 H 0.0 **** 0.06
17184 H 101.83884626084642 65.45597402939973 62.314925987908225 H 0.0 **** 0.06
17185 H 102.06603606443852 67.21020222210808 62.11303328282236 H 0.0 **** 0.06
17186 C 39.5905003321146 86.81554114350504 90.11631224218198 C 0.0 **** -0.24
17187 H 40.486892644342475 86.44221109128361 90.61282074853085 H 0.0 **** 0.06
17188 H 39.73688760245017 87.86037965958616 89.84063955996422 H 0.0 **** 0.06
17189 H 38.74004108475934 86.73305195653543 90.79268617865955 H 0.0 **** 0.06
17190 H 39.40051291410133 86.2258043472714 89.21889512359974 H 0.0 **** 0.06
17191 C 48.089939789823774 88.78690604918938 6.543492071693123 C 0.0 **** -0.24
17192 H 47.723018878600584 87.79380523934668 6.282869749978346 H 0.0 **** 0.06
17193 H 48.952305435054114 88.69296736445173 7.202804665147227 H 0.0 **** 0.06
17194 H 47.3012021852993 89.34196531839672 7.051949899609099 H 0.0 **** 0.06
17195 H 48.38012801754573 89.31621768134619 5.635853309604386 H 0.0 **** 0.06
17196 C 24.08731718794465 31.839756646147464 30.398248619558657 C 0.0 **** -0.24
17197 H 24.178977729058346 32.330280973188394 29.429176713214105 H 0.0 **** 0.06
17198 H 25.073266176310398 31.5282382883251 30.741445310331066 H 0.0 **** 0.06
17199 H 23.442507351036227 30.96601849629957 30.302222235296114 H 0.0 **** 0.06
17200 H 23.65350192146778 32.53404934802086 31.116575831705987 H 0.0 **** 0.06
17201 C 33.918454106355384 30.42318774575756 23.130715141110556 C 0.0 **** -0.24
17202 H 34.99817955887771 30.5439286664394 23.211447040712955 H 0.0 **** 0.06
17203 H 33.43986423647571 30.832032520145617 24.02166851904687 H 0.0 **** 0.06
17204 H 33.6771712327663 29.36400653725991 23.042432305843988 H 0.0 **** 0.06
17205 H 33.5580092769469 30.953220659321516 22.248520252535712 H 0.0 **** 0.06
17206 C 94.12824125813682 43.07532517747688 24.74424683195072 C 0.0 **** -0.24
17207 H 95.2041154272735 43.147865294631636 24.584560132831207 H 0.0 **** 0.06
17208 H 93.71264533167243 42.321619731620466 24.076052092433102 H 0.0 **** 0.06
17209 H 93.66403556701457 44.04002366736773 24.538954263489316 H 0.0 **** 0.06
17210 H 93.93291935134397 42.79143475664738 25.778940399836188 H 0.0 **** 0.06
17211 C 43.86319105360462 41.50969460830578 76.48744604904152 C 0.0 **** -0.24
17212 H 43.81781875237982 42.34603334047932 75.78969894336501 H 0.0 **** 0.06
17213 H 44.28470527379534 40.63926698570572 75.98331439850335 H 0.0 **** 0.06
17214 H 42.85966783973413 41.27496495243662 76.83995304648397 H 0.0 **** 0.06
17215 H 44.492675900034214 41.777974435291696 77.335684147167 H 0.0 **** 0.06
17216 C 121.5479603695964 67.12994435096482 102.18899663234103 C 0.0 **** -0.24
17217 H 121.12732843759689 66.91561366763275 101.20650120302307 H 0.0 **** 0.06
17218 H 122.17337414577008 66.29470693972476 102.5056087845326 H 0.0 **** 0.06
17219 H 120.74055583841685 67.27226187540566 102.90760069522756 H 0.0 **** 0.06
17220 H 122.15069390531653 68.03620901519625 102.13615031657756 H 0.0 **** 0.06
17221 C 32.54118291952363 77.6654755512215 23.849655197827786 C 0.0 **** -0.24
17222 H 32.9444887312802 78.6682601221514 23.990863057061006 H 0.0 **** 0.06
17223 H 32.6546988390015 77.37218677091363 22.805257264178977 H 0.0 **** 0.06
17224 H 31.48405964841686 77.6582730019488 24.116095936306607 H 0.0 **** 0.06
17225 H 33.08071283508036 76.96302072213658 24.485230397211552 H 0.0 **** 0.06
17226 C 39.07023970028371 1.8511724863517998 70.22820199016235 C 0.0 **** -0.24
17227 H 39.532849395521026 2.7936180337777046 69.93571648621284 H 0.0 **** 0.06
17228 H 38.145944688628774 1.7111774038692147 69.66766631920493 H 0.0 **** 0.06
17229 H 38.848984264981596 1.8706841904458429 71.29501332163096 H 0.0 **** 0.06
17230 H 39.753180452003576 1.02921031731438 70.01441183360078 H 0.0 **** 0.06
17231 C 5.9951793679310015 79.6469080628915 14.765329252314956 C 0.0 **** -0.24
17232 H 5.113420993849829 79.76507963031 15.394065846974385 H 0.0 **** 0.06
17233 H 6.030386968608809 78.62996314010991 14.374924894043176 H 0.0 **** 0.06
17234 H 6.890954662416334 79.84025092574385 15.356775253084635 H 0.0 **** 0.06
17235 H 5.948689310334828 80.35301816996306 13.936581226036182 H 0.0 **** 0.06
17236 C 69.95405138693678 59.944244482206216 45.27445336235122 C 0.0 **** -0.24
17237 H 69.16852561253938 60.48906230896864 45.79879481786219 H 0.0 **** 0.06
17238 H 70.58242548086213 59.426362463468934 45.99904106635816 H 0.0 **** 0.06
17239 H 70.56112675316248 60.6458287004817 44.7010021462358 H 0.0 **** 0.06
17240 H 69.50258384448264 59.21826970144039 44.59860295067168 H 0.0 **** 0.06
17241 C 46.80342701195369 78.51905200385013 55.83642602211898 C 0.0 **** -0.24
17242 H 47.556101306900004 79.23274371460471 56.17072177507797 H 0.0 **** 0.06
17243 H 47.29082147548037 77.6881779935463 55.32612497693342 H 0.0 **** 0.06
17244 H 46.114067681405686 79.01309257146815 55.150573378902685 H 0.0 **** 0.06
17245 H 46.25106660441182 78.14370727403008 56.69729208950108 H 0.0 **** 0.06
17246 C 17.53115660238871 49.57397091331603 100.18320606518398 C 0.0 **** -0.24
17247 H 16.61859833539881 49.69242837921192 99.59956976610823 H 0.0 **** 0.06
17248 H 17.877097116452738 48.541997681254315 100.10950635036463 H 0.0 **** 0.06
17249 H 17.330315757834708 49.816371393617516 101.22641603989487 H 0.0 **** 0.06
17250 H 18.29944254057121 50.2430279348 99.79531231327343 H 0.0 **** 0.06
17251 C 88.5392786898746 104.06121846904983 39.71615079869218 C 0.0 **** -0.24
17252 H 88.12799894935296 103.05969740287128 39.58662973279175 H 0.0 **** 0.06
17253 H 87.84903123201144 104.66436926784638 40.30524132065054 H 0.0 **** 0.06
17254 H 88.68411261385626 104.52260573573813 38.73989008093977 H 0.0 **** 0.06
17255 H 89.49757900914204 103.99551728136927 40.23238043694667 H 0.0 **** 0.06
17256 C 79.49617487921043 40.52465552271593 41.56134507789102 C 0.0 **** -0.24
17257 H 79.87234402211817 39.5179264977383 41.37921166639882 H 0.0 **** 0.06
17258 H 78.78773986451333 40.503296915184876 42.38976513894089 H 0.0 **** 0.06
17259 H 78.9966917378351 40.893503833843795 40.66499989208806 H 0.0 **** 0.06
17260 H 80.32700006135212 41.18419389390334 41.81116453022432 H 0.0 **** 0.06
17261 C 39.07521665616443 28.37261061635138 50.62568859113833 C 0.0 **** -0.24
17262 H 38.00827811919291 28.15901250673653 50.685355196757115 H 0.0 **** 0.06
17263 H 39.630633418568635 27.43581295434211 50.56152001550089 H 0.0 **** 0.06
17264 H 39.3865550615709 28.920246622220077 51.51410697309464 H 0.0 **** 0.06
17265 H 39.27526616437271 28.974192352491883 49.7390163075718 H 0.0 **** 0.06
17266 C 19.422322929644928 20.460186286931123 67.69681966987307 C 0.0 **** -0.24
17267 H 19.79260045975772 20.619084757978648 68.70905773141942 H 0.0 **** 0.06
17268 H 19.602447084553123 19.426163562796145 67.40288358706198 H 0.0 **** 0.06
17269 H 19.943483701394477 21.12902716428853 67.01074201644332 H 0.0 **** 0.06
17270 H 18.35273531141753 20.667518367805744 67.66457279327437 H 0.0 **** 0.06
17271 C 104.05755470175973 49.49163893581275 8.909789771932935 C 0.0 **** -0.24
17272 H 104.80043513676657 50.20937217883666 8.561790086551127 H 0.0 **** 0.06
17273 H 103.73378302573559 49.762485765173516 9.915317042077106 H 0.0 **** 0.06
17274 H 104.49628055502166 48.49371710111728 8.92501449246322 H 0.0 **** 0.06
17275 H 103.19972008951476 49.50098069812381 8.237037466640402 H 0.0 **** 0.06
17276 C 78.40988984567636 44.0499174747047 23.758330332424954 C 0.0 **** -0.24
17277 H 78.91406680766627 44.827245093375154 23.18464360382317 H 0.0 **** 0.06
17278 H 78.50180226364876 43.096157075088 23.23807234439319 H 0.0 **** 0.06
17279 H 77.35526676817716 44.30433197710968 23.867488920437218 H 0.0 **** 0.06
17280 H 78.86829339217078 43.97161740565744 24.744488257986035 H 0.0 **** 0.06
17281 C 42.442996462191616 26.17502241387001 87.01817789941657 C 0.0 **** -0.24
17282 H 42.10363729467741 27.1456103235991 86.6565059638097 H 0.0 **** 0.06
17283 H 42.708264906795705 26.25226531254164 88.07214908744103 H 0.0 **** 0.06
17284 H 43.31555806068633 25.858363903052364 86.44540843229507 H 0.0 **** 0.06
17285 H 41.64426494096523 25.443298447401162 86.89627576101358 H 0.0 **** 0.06
17286 C 113.74826189269356 13.872828447038401 53.96592445885227 C 0.0 **** -0.24
17287 H 114.4591877868043 13.064026381608272 54.133219680528725 H 0.0 **** 0.06
17288 H 112.76177843520196 13.56804810440218 54.31544193418574 H 0.0 **** 0.06
17289 H 113.70278086178826 14.101266141207816 52.901539766755775 H 0.0 **** 0.06
17290 H 114.0705948596572 14.757906856291441 54.514645527501784 H 0.0 **** 0.06
17291 C 25.91052040720018 83.41973903452336 22.16386321189617 C 0.0 **** -0.24
17292 H 26.305678302812737 82.57481167253266 22.72699114358022 H 0.0 **** 0.06
17293 H 26.369015867355245 83.44274175097567 21.174637765084277 H 0.0 **** 0.06
17294 H 26.137746348354653 84.34609572123452 22.691622437932168 H 0.0 **** 0.06
17295 H 24.83083001227459 83.31605435601759 22.062033952747704 H 0.0 **** 0.06
17296 C 71.13051200920765 94.30609377293271 76.08236780922817 C 0.0 **** -0.24
17297 H 70.41518833903041 94.34217094797904 76.90355753829539 H 0.0 **** 0.06
17298 H 71.26645903140016 93.27258432276281 75.76366456505383 H 0.0 **** 0.06
17299 H 72.08567244478704 94.71391082932104 76.414132716945 H 0.0 **** 0.06
17300 H 70.75434067190184 94.89706029378027 75.2463774323931 H 0.0 **** 0.06
17301 C 97.77149519461395 17.440897003972772 106.30741699143712 C 0.0 **** -0.24
17302 H 96.87393862565008 17.74094012864573 105.76679656366076 H 0.0 **** 0.06
17303 H 97.80979207527099 16.35394410940692 106.37236951372344 H 0.0 **** 0.06
17304 H 97.74876736776554 17.864936413455993 107.3121693249307 H 0.0 **** 0.06
17305 H 98.65213420715517 17.805272174753483 105.77929035503871 H 0.0 **** 0.06
17306 C 81.5893891933622 87.4778165836606 98.93867615472274 C 0.0 **** -0.24
17307 H 82.63309043332728 87.69712863997299 99.16399387924909 H 0.0 **** 0.06
17308 H 81.01662634474164 87.44514431989657 99.8660096575777 H 0.0 **** 0.06
17309 H 81.52147146825934 86.51364006193683 98.43458493195507 H 0.0 **** 0.06
17310 H 81.18670351095071 88.25630724980601 98.28912726112887 H 0.0 **** 0.06
17311 C 90.9979348909267 34.1792939144091 95.07054871348586 C 0.0 **** -0.24
17312 H 91.08479103948963 35.25127267611975 95.24969030666753 H 0.0 **** 0.06
17313 H 91.84729900736235 33.66557420786236 95.52056179694219 H 0.0 **** 0.06
17314 H 90.98666220540898 33.990709425340384 93.99689329192907 H 0.0 **** 0.06
17315 H 90.07355248075044 33.81076692465463 95.51388163171026 H 0.0 **** 0.06
17316 C 55.04911141754018 60.67688467433809 13.301234633618094 C 0.0 **** -0.24
17317 H 54.40169336420218 60.4498301571921 14.147991515632384 H 0.0 **** 0.06
17318 H 54.63594886415411 61.516471413382966 12.742448514219916 H 0.0 **** 0.06
17319 H 55.1159746171685 59.80436270717386 12.650663416236625 H 0.0 **** 0.06
17320 H 56.04443077436395 60.93634517795214 13.66344288010896 H 0.0 **** 0.06
17321 C 21.55462505903256 76.01033112626001 80.80594262556798 C 0.0 **** -0.24
17322 H 22.242539774546344 75.46731390622591 80.15836735146718 H 0.0 **** 0.06
17323 H 22.11746263621552 76.51459171664658 81.59213554522006 H 0.0 **** 0.06
17324 H 20.8491104887554 75.31109448100571 81.25403681102557 H 0.0 **** 0.06
17325 H 21.010413548537485 76.7496503425964 80.21775125182211 H 0.0 **** 0.06
17326 C 58.49267696440222 47.52973752443029 89.35444385716937 C 0.0 **** -0.24
17327 H 58.776237246861115 48.53874598983194 89.6562711184784 H 0.0 **** 0.06
17328 H 59.273171341910256 46.829604383886135 89.65160074618908 H 0.0 **** 0.06
17329 H 58.36642207755966 47.496389845619035 88.27264270959648 H 0.0 **** 0.06
17330 H 57.55473219380224 47.25734874102673 89.83929242925024 H 0.0 **** 0.06
17331 C 25.26921400854684 57.4663313111395 81.5922003323079 C 0.0 **** -0.24
17332 H 25.842649911266633 57.58563460931461 80.67320681204245 H 0.0 **** 0.06
17333 H 25.42172505951369 56.46263170062113 81.98925399699186 H 0.0 **** 0.06
17334 H 24.210724681872165 57.617144749884346 81.38109192567845 H 0.0 **** 0.06
17335 H 25.60148340438991 58.20126151048666 82.32558072119627 H 0.0 **** 0.06
17336 C 93.14651238290142 46.88556083112371 74.3472450443744 C 0.0 **** -0.24
17337 H 93.7051109790917 45.95554327158021 74.4474848356858 H 0.0 **** 0.06
17338 H 92.85639591300864 47.24403338788284 75.33591794413155 H 0.0 **** 0.06
17339 H 92.25266188899957 46.70956497695323 73.74803562132035 H 0.0 **** 0.06
17340 H 93.77064013335868 47.63364930252246 73.85794314756131 H 0.0 **** 0.06
17341 C 104.41654214723175 83.62521596720799 54.054748040358646 C 0.0 **** -0.24
17342 H 105.19426906554963 82.87256558247876 53.92788854773792 H 0.0 **** 0.06
17343 H 104.79503965266147 84.43554796039638 54.677759938289256 H 0.0 **** 0.06
17344 H 103.54844219064762 83.17372549691888 54.53467921409015 H 0.0 **** 0.06
17345 H 104.12956755921726 84.02009041631109 53.08025900828039 H 0.0 **** 0.06
17346 C 13.63259306791744 29.38026347291722 116.29211298728957 C 0.0 **** -0.24
17347 H 12.990787652236719 28.50092272424689 116.22885285843051 H 0.0 **** 0.06
17348 H 14.075304723766664 29.57788148234772 115.31590161801616 H 0.0 **** 0.06
17349 H 14.42383429975834 29.20062239399121 117.0205315282554 H 0.0 **** 0.06
17350 H 13.039762092720835 30.24078805877957 116.60407623224512 H 0.0 **** 0.06
17351 C 1.904718947587014 103.29778439217989 2.0471999974153334 C 0.0 **** -0.24
17352 H 0.850231711566181 103.04203914364678 2.1532339226518076 H 0.0 **** 0.06
17353 H 2.0634208052351255 104.32703135701513 2.3695500462027326 H 0.0 **** 0.06
17354 H 2.1997216953376437 103.19491549350869 1.0029718168428872 H 0.0 **** 0.06
17355 H 2.5055298421140435 102.62707160314847 2.6620477796620037 H 0.0 **** 0.06
17356 C 10.019791798766136 98.1158091820821 100.42633324136003 C 0.0 **** -0.24
17357 H 10.445608493730873 98.97735020834875 100.94097714714914 H 0.0 **** 0.06
17358 H 9.609280750342919 98.43344390009304 99.46743750244252 H 0.0 **** 0.06
17359 H 9.226530006970506 97.68507022476615 101.03673865588226 H 0.0 **** 0.06
17360 H 10.797470666246056 97.3704464101254 100.26139381031714 H 0.0 **** 0.06
17361 C 10.559668177215144 44.699555184789176 122.07883057245715 C 0.0 **** -0.24
17362 H 10.756056007822053 43.97219599925444 121.29162315347241 H 0.0 **** 0.06
17363 H 9.542493017561696 44.568701030762156 122.44862786451952 H 0.0 **** 0.06
17364 H 10.67365622633713 45.707518398050524 121.67825961875599 H 0.0 **** 0.06
17365 H 11.266251171813792 44.55152220070141 122.89457425369329 H 0.0 **** 0.06
17366 C 7.6487060283934625 49.36348561296816 33.326895494273835 C 0.0 **** -0.24
17367 H 8.50503647854589 50.01412248014992 33.49712421537383 H 0.0 **** 0.06
17368 H 7.935944196921753 48.32809923177558 33.509806398499165 H 0.0 **** 0.06
17369 H 7.310797063193405 49.47028622214438 32.29559662903348 H 0.0 **** 0.06
17370 H 6.841044593057177 49.64174540146783 34.00410789784524 H 0.0 **** 0.06
17371 C 23.95168546839372 34.932691601096565 76.20741285570679 C 0.0 **** -0.24
17372 H 23.22506225241858 34.90172190605995 75.39536130321392 H 0.0 **** 0.06
17373 H 24.76185827531239 34.23411302527586 75.99725065422467 H 0.0 **** 0.06
17374 H 23.464303557732904 34.65460390550936 77.1412849957704 H 0.0 **** 0.06
17375 H 24.355975825492777 35.94176382832086 76.29444009547811 H 0.0 **** 0.06
17376 C 90.42768481725443 77.58470853727817 53.34811377655279 C 0.0 **** -0.24
17377 H 89.5639964569757 77.56554268358363 54.012546766734545 H 0.0 **** 0.06
17378 H 90.09141025547672 77.70047590803489 52.31788542797531 H 0.0 **** 0.06
17379 H 90.98295890753366 76.65280473325512 53.4474165064166 H 0.0 **** 0.06
17380 H 91.07195435781978 78.4226332980902 53.61600187158123 H 0.0 **** 0.06
17381 C 41.71049640418971 22.571086767387918 94.45306282210106 C 0.0 **** -0.24
17382 H 42.57129709383497 22.940607852486423 95.00968426228815 H 0.0 **** 0.06
17383 H 42.04296326849487 21.848313421895526 93.70739489881004 H 0.0 **** 0.06
17384 H 41.21339949260795 23.40387286214331 93.95607380407 H 0.0 **** 0.06
17385 H 41.01376422594916 22.089169438371975 95.13916128886984 H 0.0 **** 0.06
17386 C 3.6603055926496353 37.42340233564212 121.36972686442124 C 0.0 **** -0.24
17387 H 4.043391568221963 38.41142701729393 121.62150532813914 H 0.0 **** 0.06
17388 H 2.631955745476077 37.331654923906285 121.72050768140596 H 0.0 **** 0.06
17389 H 4.276933807127676 36.661837437919175 121.84784266624663 H 0.0 **** 0.06
17390 H 3.688449329295267 37.287364948241276 120.28900218080636 H 0.0 **** 0.06
17391 C 71.31593799577641 66.14527454231182 42.37512511170951 C 0.0 **** -0.24
17392 H 70.59544984910715 65.32654814248855 42.36166684056488 H 0.0 **** 0.06
17393 H 72.28737755497929 65.77931978348073 42.04129060195733 H 0.0 **** 0.06
17394 H 71.40278254920685 66.53528770042689 43.389406584865185 H 0.0 **** 0.06
17395 H 70.97719032116814 66.93800619732701 41.708723867304855 H 0.0 **** 0.06
17396 C 110.64829424054614 8.784751144170713 33.3100879487082 C 0.0 **** -0.24
17397 H 109.95259858795725 9.557181083813077 33.63813624544042 H 0.0 **** 0.06
17398 H 110.20329622189126 7.802824750229519 33.473603990808385 H 0.0 **** 0.06
17399 H 111.57389922109388 8.86468415849643 33.87934466705133 H 0.0 **** 0.06
17400 H 110.86151929376456 8.915544498994109 32.24914671197928 H 0.0 **** 0.06
17401 C 122.35401319534296 105.94643523074137 111.4260496304821 C 0.0 **** -0.24
17402 H 123.44437498139882 105.93478920090092 111.44786138004383 H 0.0 **** 0.06
17403 H 121.98306739431294 106.59596505110846 112.21808137353696 H 0.0 **** 0.06
17404 H 121.97733479217938 104.9340400184604 111.5796060445924 H 0.0 **** 0.06
17405 H 122.01423670626032 106.31819072376186 110.46027386782288 H 0.0 **** 0.06
17406 C 6.001111093471451 56.81145426990423 34.96907117331287 C 0.0 **** -0.24
17407 H 5.656043776373707 56.9351888227624 33.94271187018532 H 0.0 **** 0.06
17408 H 6.6295535942958566 57.657084640545975 35.24518768240415 H 0.0 **** 0.06
17409 H 6.575444721423793 55.88835539386591 35.049597551683064 H 0.0 **** 0.06
17410 H 5.141359199991399 56.763104604663 35.63721121148913 H 0.0 **** 0.06
17411 C 113.89450108514288 61.28313800598676 107.88695295752498 C 0.0 **** -0.24
17412 H 114.31121686403642 60.28082633428943 107.7934257330258 H 0.0 **** 0.06
17413 H 112.80657029937254 61.221450406508495 107.92739336337024 H 0.0 **** 0.06
17414 H 114.19314780937762 61.882245312179464 107.02732708438938 H 0.0 **** 0.06
17415 H 114.26664728956459 61.74686365535996 108.80087466745442 H 0.0 **** 0.06
17416 C 91.29948220515138 5.915515192894869 35.24975315102239 C 0.0 **** -0.24
17417 H 90.22332372917285 5.747654700616117 35.20854741485567 H 0.0 **** 0.06
17418 H 91.75113264495104 5.2089598661915275 35.945634997247 H 0.0 **** 0.06
17419 H 91.49530004701978 6.933959013216544 35.58794657120711 H 0.0 **** 0.06
17420 H 91.72810898122864 5.773707634889309 34.257916066179575 H 0.0 **** 0.06
17421 C 119.00224907536149 24.13098029353131 60.96503931061907 C 0.0 **** -0.24
17422 H 119.4367344147775 23.542367591415427 61.77365402814278 H 0.0 **** 0.06
17423 H 119.60508870771487 25.024722881882667 60.802590182589846 H 0.0 **** 0.06
17424 H 117.98642657487218 24.420918390097484 61.23274185105689 H 0.0 **** 0.06
17425 H 118.98131884685142 23.534518615823742 60.05282358228258 H 0.0 **** 0.06
17426 C 0.11214404459686023 33.84552712578261 109.27960501332237 C 0.0 **** -0.24
17427 H -0.14392639018261377 34.9044590249394 109.2624223331133 H 0.0 **** 0.06
17428 H 0.22146583675475995 33.51585410666178 110.31283276193537 H 0.0 **** 0.06
17429 H 1.0502668311075922 33.69054347875573 108.74682191736443 H 0.0 **** 0.06
17430 H -0.6787932763762683 33.27257327177318 108.79659454555716 H 0.0 **** 0.06
17431 C 24.047331477855153 27.38425417422725 44.58801444041842 C 0.0 **** -0.24
17432 H 23.836076027383257 27.97489299856006 45.47936904832713 H 0.0 **** 0.06
17433 H 24.262546447125857 28.0513164252162 43.7526021705209 H 0.0 **** 0.06
17434 H 23.180548441459507 26.768007376108017 44.346787896786765 H 0.0 **** 0.06
17435 H 24.908748941621838 26.742773613795734 44.7731488690583 H 0.0 **** 0.06
17436 C 30.29636584759703 65.26731444233315 20.67678738911593 C 0.0 **** -0.24
17437 H 30.30775019603425 66.09919300849725 21.38136925367678 H 0.0 **** 0.06
17438 H 30.74115915686974 65.5855372389911 19.73328256138751 H 0.0 **** 0.06
17439 H 29.267420777500945 64.95035552506118 20.504830263014412 H 0.0 **** 0.06
17440 H 30.869017283689402 64.43518253179053 21.086684890056915 H 0.0 **** 0.06
17441 C 121.44633639239349 92.1509233469279 28.726789766775994 C 0.0 **** -0.24
17442 H 121.82066504088861 91.82661703067987 27.755742078767767 H 0.0 **** 0.06
17443 H 120.36828872746082 92.29975096687377 28.669495143177386 H 0.0 **** 0.06
17444 H 121.92882015742838 93.08715077980253 29.007638025274687 H 0.0 **** 0.06
17445 H 121.66870878665344 91.3893977704152 29.47396204798622 H 0.0 **** 0.06
17446 C 110.28029511429128 21.623756502051847 94.89293319810648 C 0.0 **** -0.24
17447 H 110.7842081907192 22.38852028914973 95.48340339548625 H 0.0 **** 0.06
17448 H 109.2116641796145 21.643759176015735 95.10977189239074 H 0.0 **** 0.06
17449 H 110.6844156363479 20.643609582578044 95.1452459496009 H 0.0 **** 0.06
17450 H 110.44008674221772 21.819749317784677 93.83232364603128 H 0.0 **** 0.06
17451 C 48.00208363043305 96.72104559120712 104.84897528315923 C 0.0 **** -0.24
17452 H 48.77182666019536 97.3643778642481 104.42271317778702 H 0.0 **** 0.06
17453 H 48.19077737105931 95.68783063827954 104.55737338641467 H 0.0 **** 0.06
17454 H 47.0240512621383 97.03125796123308 104.48025162451353 H 0.0 **** 0.06
17455 H 48.02264760009723 96.80174562575411 105.93551783811424 H 0.0 **** 0.06
17456 C 36.0565676090348 11.989348412510964 38.52274155672569 C 0.0 **** -0.24
17457 H 36.0854607327164 12.22860375976407 37.45926177363958 H 0.0 **** 0.06
17458 H 35.91914283026114 12.905862788533227 39.09673020771521 H 0.0 **** 0.06
17459 H 36.99291403468584 11.513432710356312 38.8134557211593 H 0.0 **** 0.06
17460 H 35.227015975549875 11.309976961256865 38.71985998060717 H 0.0 **** 0.06
17461 C 113.26393785297995 81.94436145065643 71.56276324289564 C 0.0 **** -0.24
17462 H 112.81517013309956 82.32306242645751 72.48058957945676 H 0.0 **** 0.06
17463 H 112.80972435933985 82.44023510101368 70.70441214787172 H 0.0 **** 0.06
17464 H 113.09537022371057 80.8693734698565 71.49281347941724 H 0.0 **** 0.06
17465 H 114.33489275391828 82.14423410384612 71.57264200424771 H 0.0 **** 0.06
17466 C 66.61975646240234 78.20026647439045 46.713603528828315 C 0.0 **** -0.24
17467 H 65.73884296345085 78.81667435522289 46.53622026123267 H 0.0 **** 0.06
17468 H 66.38632372142462 77.16043605770577 46.484514036163546 H 0.0 **** 0.06
17469 H 66.91792215561509 78.28388458621586 47.75825529339721 H 0.0 **** 0.06
17470 H 67.43477427384414 78.53890737795729 46.07360942099788 H 0.0 **** 0.06
17471 C 120.20929606194498 2.6429493717181174 20.032450421380844 C 0.0 **** -0.24
17472 H 120.95595732462625 3.2889296648290696 19.571006461849635 H 0.0 **** 0.06
17473 H 120.70398164468847 1.929809104676039 20.692508987427658 H 0.0 **** 0.06
17474 H 119.66641098247928 2.1032477657517177 19.25600329570156 H 0.0 **** 0.06
17475 H 119.51194062422887 3.248930963893173 20.610240860238918 H 0.0 **** 0.06
17476 C 31.05170526526021 105.50823468576624 4.166274756091525 C 0.0 **** -0.24
17477 H 31.09477702107887 105.89236244893877 3.1469265155204766 H 0.0 **** 0.06
17478 H 32.05406944517449 105.50209265092573 4.595060815415991 H 0.0 **** 0.06
17479 H 30.655180740145482 104.49215032790937 4.154737777497559 H 0.0 **** 0.06
17480 H 30.40231941251656 106.14414294549826 4.767385220419726 H 0.0 **** 0.06
17481 C 36.179265348495875 26.003584233461567 2.553824486029871 C 0.0 **** -0.24
17482 H 36.83705945403963 26.625920593368193 1.9470951396704468 H 0.0 **** 0.06
17483 H 35.827714855952394 26.577086275907163 3.4114017584020377 H 0.0 **** 0.06
17484 H 36.72688481189249 25.127544441987936 2.901652529947974 H 0.0 **** 0.06
17485 H 35.326320038707934 25.685248986589045 1.9541403033799316 H 0.0 **** 0.06
17486 C 13.246012938653024 74.47566884278075 105.37552756607371 C 0.0 **** -0.24
17487 H 13.986299042100484 74.42368209265356 106.17324426701433 H 0.0 **** 0.06
17488 H 13.670049663233044 74.0657419930939 104.45822280231033 H 0.0 **** 0.06
17489 H 12.95993068772907 75.51455528267601 105.21220266543295 H 0.0 **** 0.06
17490 H 12.366051367609003 73.89696386272092 105.65863599034273 H 0.0 **** 0.06
17491 C 83.00851014242724 12.684157531797382 10.827447448769753 C 0.0 **** -0.24
17492 H 82.48103214027617 11.85517812880039 10.35553618817939 H 0.0 **** 0.06
17493 H 82.53060616998377 12.925771698815026 11.776229010950026 H 0.0 **** 0.06
17494 H 82.97714876910504 13.554917077968 10.171851188276875 H 0.0 **** 0.06
17495 H 84.04641060786611 12.400992267760216 11.004558217421017 H 0.0 **** 0.06
17496 C 0.7514592017847974 91.58144878989094 32.75864453030931 C 0.0 **** -0.24
17497 H 1.376067653947885 91.31492671215855 33.6111733483572 H 0.0 **** 0.06
17498 H -0.2529836370640055 91.82385960900828 33.10570174201743 H 0.0 **** 0.06
17499 H 0.7051425291626714 90.74167234918264 32.065753926226535 H 0.0 **** 0.06
17500 H 1.179267478622151 92.44713132901529 32.25176878790356 H 0.0 **** 0.06
17501 C 121.8796099503893 119.71017089841303 74.38417762135464 C 0.0 **** -0.24
17502 H 122.07610453649545 120.75521614723158 74.62335417823516 H 0.0 **** 0.06
17503 H 122.52350679294479 119.07134140372864 74.99034671971117 H 0.0 **** 0.06
17504 H 122.08370671831267 119.5347448561227 73.32857340303002 H 0.0 **** 0.06
17505 H 120.83549628007628 119.47978610657668 74.5966032211681 H 0.0 **** 0.06
17506 C 14.283047351391417 118.97086829716179 66.32418403916193 C 0.0 **** -0.24
17507 H 14.016918152675942 119.80208664376246 65.6703082820305 H 0.0 **** 0.06
17508 H 15.34884105387431 118.76259846776664 66.23061808406115 H 0.0 **** 0.06
17509 H 13.712282757434934 118.08775359520962 66.03854566056424 H 0.0 **** 0.06
17510 H 14.053163155789036 119.23406754798728 67.35591048321689 H 0.0 **** 0.06
17511 C 19.245297596063324 33.18494905134514 50.825170271226284 C 0.0 **** -0.24
17512 H 19.897416301408413 33.194708141751505 51.69863812662675 H 0.0 **** 0.06
17513 H 19.714399713839526 33.74369995048761 50.015471097393004 H 0.0 **** 0.06
17514 H 18.290411639300856 33.64444259307817 51.07992232559138 H 0.0 **** 0.06
17515 H 19.07935834795066 32.15500630263233 50.50867026963061 H 0.0 **** 0.06
17516 C 10.778014401587697 52.63108345187814 49.599311760515775 C 0.0 **** -0.24
17517 H 9.813308670516559 52.13758950997814 49.48664569099924 H 0.0 **** 0.06
17518 H 11.080416995532996 53.059441689099884 48.64333892567137 H 0.0 **** 0.06
17519 H 11.522721077977984 51.90348100059177 49.92299958101795 H 0.0 **** 0.06
17520 H 10.69638013986691 53.42374939141271 50.34307831570334 H 0.0 **** 0.06
17521 C 63.315725287473015 7.121811158663377 106.76781713640173 C 0.0 **** -0.24
17522 H 64.09195395420798 7.804442177698206 106.42130291599193 H 0.0 **** 0.06
17523 H 63.76797916428464 6.172989658524159 107.05703044816346 H 0.0 **** 0.06
17524 H 62.59725876836944 6.951545601991484 105.96558795054179 H 0.0 **** 0.06
17525 H 62.80485317171613 7.558558530139351 107.62530211217228 H 0.0 **** 0.06
17526 C 8.651247077774187 89.56396874952071 19.614375866958483 C 0.0 **** -0.24
17527 H 8.908438502696018 89.21651254552981 18.61299783071722 H 0.0 **** 0.06
17528 H 9.122135653823555 90.53003641697546 19.795738292888906 H 0.0 **** 0.06
17529 H 9.00634247056714 88.84190394682005 20.350553756894154 H 0.0 **** 0.06
17530 H 7.5697478763684956 89.66451720042431 19.696889681535826 H 0.0 **** 0.06
17531 C 68.90363450158222 16.730484160104705 39.73831660744857 C 0.0 **** -0.24
17532 H 69.46500844614971 16.76485389686316 38.80507382123777 H 0.0 **** 0.06
17533 H 68.02408789274946 17.370160042095094 39.6566175640308 H 0.0 **** 0.06
17534 H 69.53495960373033 17.082388290506064 40.55486010653358 H 0.0 **** 0.06
17535 H 68.59010866074124 15.705439613154574 39.93651187428215 H 0.0 **** 0.06
17536 C 3.8384412039127653 68.46437752653623 107.25668349576506 C 0.0 **** -0.24
17537 H 3.926875577687781 67.81491669604594 106.385752888648 H 0.0 **** 0.06
17538 H 4.31584615926613 67.98861989425461 108.11425121964271 H 0.0 **** 0.06
17539 H 2.785583826307402 68.63602684375479 107.47564664746372 H 0.0 **** 0.06
17540 H 4.327425036638118 69.41648651752189 107.05102018047171 H 0.0 **** 0.06
17541 C 92.197206101512 19.740545498174015 49.18792349624982 C 0.0 **** -0.24
17542 H 92.12231367752742 20.737394895552995 49.62247675624633 H 0.0 **** 0.06
17543 H 93.19218111053664 19.33719793035172 49.37367480328129 H 0.0 **** 0.06
17544 H 92.02308748608277 19.79954958882874 48.11332944306338 H 0.0 **** 0.06
17545 H 91.44983437519736 19.089789048277595 49.641234254328424 H 0.0 **** 0.06
17546 C 82.69085100688952 114.32749945764833 112.78177502414525 C 0.0 **** -0.24
17547 H 82.75213475192601 114.71688153515333 111.76551618289375 H 0.0 **** 0.06
17548 H 82.88027106041537 113.25413603229971 112.77186903025036 H 0.0 **** 0.06
17549 H 81.69598846735616 114.51767372986686 113.18325397392512 H 0.0 **** 0.06
17550 H 83.43527301441691 114.82342653892205 113.40580019392851 H 0.0 **** 0.06
17551 C 32.247255028535605 58.477148261119396 114.45550926654451 C 0.0 **** -0.24
17552 H 32.878271257940824 57.89058341988476 115.12301755708313 H 0.0 **** 0.06
17553 H 31.937409549268807 59.392325924968134 114.95946335125977 H 0.0 **** 0.06
17554 H 31.36624762421681 57.89579844521927 114.18368125052083 H 0.0 **** 0.06
17555 H 32.80749000454041 58.72941802694203 113.55460087845037 H 0.0 **** 0.06
17556 C 68.33592822827123 42.790935247268365 73.6846201647422 C 0.0 **** -0.24
17557 H 68.88267281736171 42.68229391297281 74.6215270798323 H 0.0 **** 0.06
17558 H 68.1368767664552 43.847450580313534 73.5002832675786 H 0.0 **** 0.06
17559 H 67.39206388992821 42.24948318305843 73.75014814000306 H 0.0 **** 0.06
17560 H 68.93198066497601 42.38472641707068 72.86791522234876 H 0.0 **** 0.06
17561 C 59.597339166329476 28.252865204963427 52.017336088313925 C 0.0 **** -0.24
17562 H 58.574955155907844 28.130417614769712 52.375159596506705 H 0.0 **** 0.06
17563 H 60.122917351072715 28.962731894676665 52.65643937508321 H 0.0 **** 0.06
17564 H 59.58082772214749 28.629364615459707 50.99389690088958 H 0.0 **** 0.06
17565 H 60.109408707411205 27.291621680476112 52.043311706820276 H 0.0 **** 0.06
17566 C 25.831118429947054 81.00048764013596 14.901521217628613 C 0.0 **** -0.24
17567 H 26.20534794315583 80.06143845707086 15.308865071106283 H 0.0 **** 0.06
17568 H 26.275113412573972 81.83438334434945 15.444568637938403 H 0.0 **** 0.06
17569 H 24.746707572172056 81.03444532052688 15.007408460844687 H 0.0 **** 0.06
17570 H 26.09577560203914 81.07076777328251 13.846923018874463 H 0.0 **** 0.06
17571 C 108.51987062135328 70.1661860262484 0.29822876977272017 C 0.0 **** -0.24
17572 H 107.67297639444709 69.87459150133014 -0.32395368019152215 H 0.0 **** 0.06
17573 H 108.6558876899675 69.43340144102336 1.0932993392669772 H 0.0 **** 0.06
17574 H 108.32791885192242 71.14603474284377 0.7348889501522251 H 0.0 **** 0.06
17575 H 109.42098002301358 70.21064076055637 -0.31377676573026747 H 0.0 **** 0.06
17576 C 13.995707554970814 69.86999650010205 25.013293275949877 C 0.0 **** -0.24
17577 H 14.469806750159638 69.87590440711833 25.994320864637075 H 0.0 **** 0.06
17578 H 14.687487481277625 70.27453382814826 24.273665479499726 H 0.0 **** 0.06
17579 H 13.094248575156673 70.48329086945313 25.04169987329746 H 0.0 **** 0.06
17580 H 13.73130898505849 68.8479829346785 24.743343739406384 H 0.0 **** 0.06
17581 C 88.46689795710046 115.16847779112021 2.6515935979236644 C 0.0 **** -0.24
17582 H 88.74237175975207 115.72373441397377 3.5481109635449144 H 0.0 **** 0.06
17583 H 89.03849822787146 114.24151971396273 2.607764709607693 H 0.0 **** 0.06
17584 H 88.68488991809014 115.77151394658495 1.7700301902361417 H 0.0 **** 0.06
17585 H 87.4021817504628 114.93840393998173 2.6793336077199257 H 0.0 **** 0.06
17586 C 43.67719382495454 98.76349302330172 45.259101139735264 C 0.0 **** -0.24
17587 H 44.37648459397161 99.21234315142763 45.96446778706547 H 0.0 **** 0.06
17588 H 42.66126557415413 99.06140215137196 45.51548363853675 H 0.0 **** 0.06
17589 H 43.76174674486816 97.67712900787527 45.30637947084978 H 0.0 **** 0.06
17590 H 43.91270636304307 99.10203788734094 44.250429084546 H 0.0 **** 0.06
17591 C 31.046282378820734 106.06494331279691 31.29129943094412 C 0.0 **** -0.24
17592 H 30.0837785838622 106.53127884760664 31.08361293085497 H 0.0 **** 0.06
17593 H 31.68153169571508 106.13412152703108 30.40724292353059 H 0.0 **** 0.06
17594 H 30.893939048350234 105.01652028481874 31.548293229046237 H 0.0 **** 0.06
17595 H 31.525653848851732 106.57703080977785 32.12492012068276 H 0.0 **** 0.06
17596 C 112.24428742602562 116.91742601873472 110.21540498080284 C 0.0 **** -0.24
17597 H 112.59137253446804 117.85971221428673 110.6388961386657 H 0.0 **** 0.06
17598 H 111.15440449770469 116.888852407684 110.24016271993327 H 0.0 **** 0.06
17599 H 112.64254237497597 116.0875303324392 110.79817698671548 H 0.0 **** 0.06
17600 H 112.58645508236597 116.83554820037159 109.18361020345611 H 0.0 **** 0.06
17601 C 62.629102207943994 93.92384037148511 3.7763899014919726 C 0.0 **** -0.24
17602 H 61.61083662962253 94.2197210403543 4.028099957522896 H 0.0 **** 0.06
17603 H 62.604631763332655 93.18294169203145 2.9767165159138234 H 0.0 **** 0.06
17604 H 63.110129083306695 93.4949915481345 4.6550006878168055 H 0.0 **** 0.06
17605 H 63.18992990108068 94.79817762208893 3.4456999958868515 H 0.0 **** 0.06
17606 C 97.55758108582546 3.2941376548268977 114.43879254332305 C 0.0 **** -0.24
17607 H 97.34438200625863 4.358854424258823 114.34957133995363 H 0.0 **** 0.06
17608 H 98.6356569651924 3.135937196541761 114.40963531933784 H 0.0 **** 0.06
17609 H 97.08930148948042 2.760109353510188 113.6122611793393 H 0.0 **** 0.06
17610 H 97.15985963336072 2.922328250173564 115.38317729132717 H 0.0 **** 0.06
17611 C 106.0057271401534 76.10460243031929 35.34975040921694 C 0.0 **** -0.24
17612 H 105.4392360022216 75.33384192499759 35.87135188998468 H 0.0 **** 0.06
17613 H 107.01522914257478 75.74332546030635 35.15433093587387 H 0.0 **** 0.06
17614 H 106.05258942286815 77.00086004939809 35.9680022300235 H 0.0 **** 0.06
17615 H 105.51433022628478 76.3396678945133 34.40490676868444 H 0.0 **** 0.06
17616 C 56.13405121907373 5.742795340637684 15.054830977734412 C 0.0 **** -0.24
17617 H 56.623977324900245 6.710640951432509 15.161124960439942 H 0.0 **** 0.06
17618 H 55.646695763589655 5.688091416273295 14.081136314670058 H 0.0 **** 0.06
17619 H 55.38990360284246 5.622899485931498 15.841685724259587 H 0.0 **** 0.06
17620 H 56.87744615171059 4.94968795360154 15.134082265560252 H 0.0 **** 0.06
17621 C 45.23050297284403 26.466387831039725 115.79801010075278 C 0.0 **** -0.24
17622 H 44.934899563102604 25.4765717111147 115.45138096807162 H 0.0 **** 0.06
17623 H 44.8135517214773 27.223802229504486 115.1348584083272 H 0.0 **** 0.06
17624 H 46.31753944231712 26.540951838124897 115.79796292956061 H 0.0 **** 0.06
17625 H 44.85564133781506 26.622561718987214 116.80959529575944 H 0.0 **** 0.06
17626 C 74.27360307064313 103.30926977272355 66.76611842282736 C 0.0 **** -0.24
17627 H 74.31071058450408 102.32631631389785 67.23587438847414 H 0.0 **** 0.06
17628 H 74.93836184831963 103.99033029902685 67.29822508478611 H 0.0 **** 0.06
17629 H 73.25374812639257 103.69149259615 66.80366449513713 H 0.0 **** 0.06
17630 H 74.5932997615331 103.22803591566253 65.7272251580905 H 0.0 **** 0.06
17631 C 1.3409411286496518 78.89188688048046 104.72961827823761 C 0.0 **** -0.24
17632 H 0.35737181460642553 78.51445558506094 105.01116438119604 H 0.0 **** 0.06
17633 H 1.5831992738616432 79.7620851088239 105.34054398786535 H 0.0 **** 0.06
17634 H 1.3341864820742053 79.1752623984458 103.67816371558382 H 0.0 **** 0.06
17635 H 2.0873600053513215 78.11464810708617 104.89221857113529 H 0.0 **** 0.06
17636 C 94.28558959637402 34.35173385063996 52.97790038108903 C 0.0 **** -0.24
17637 H 93.77868382544855 35.099208557887806 53.58619561907045 H 0.0 **** 0.06
17638 H 93.88530218554178 33.36396023586124 53.207701249264204 H 0.0 **** 0.06
17639 H 95.35415714888762 34.37027744207549 53.19401769582913 H 0.0 **** 0.06
17640 H 94.12530366725196 34.572939107044505 51.92245696176363 H 0.0 **** 0.06
17641 C 68.77063298779598 98.64268373128579 4.238491578477863 C 0.0 **** -0.24
17642 H 69.31170713380664 99.22512630878927 3.492998773350692 H 0.0 **** 0.06
17643 H 69.47859518149173 98.21444966491904 4.948246648513063 H 0.0 **** 0.06
17644 H 68.22115062115344 97.84151360104764 3.7441792451481177 H 0.0 **** 0.06
17645 H 68.07105468737225 99.28997375854686 4.767597394855386 H 0.0 **** 0.06
17646 C 52.78545026898644 68.53778208098785 20.61039688084756 C 0.0 **** -0.24
17647 H 52.55183512272933 68.70834731684263 21.661049802405223 H 0.0 **** 0.06
17648 H 51.967120838922455 67.99358565919584 20.139924485375193 H 0.0 **** 0.06
17649 H 53.70295323893927 67.95360176841496 20.53218017849012 H 0.0 **** 0.06
17650 H 52.92180309760795 69.4960742223677 20.108774282238386 H 0.0 **** 0.06
17651 C 46.62903873515177 78.59008543676953 40.06577629942694 C 0.0 **** -0.24
17652 H 47.657962498568 78.88247548330168 39.86165880149463 H 0.0 **** 0.06
17653 H 46.34171207214695 78.93927676460135 41.05734672667296 H 0.0 **** 0.06
17654 H 46.544858475713454 77.50385079442827 40.024847748849425 H 0.0 **** 0.06
17655 H 45.969842162098985 79.03348546906005 39.318739834419034 H 0.0 **** 0.06
17656 C 30.635457777921317 46.45478405584092 93.97506591978461 C 0.0 **** -0.24
17657 H 29.918115794269738 45.96855600601234 94.63594402651142 H 0.0 **** 0.06
17658 H 30.77381089967247 47.48988549345999 94.28825051033786 H 0.0 **** 0.06
17659 H 30.259255849179908 46.431734235853725 92.95196818159042 H 0.0 **** 0.06
17660 H 31.588206263449024 45.928965233838674 94.02428926147073 H 0.0 **** 0.06
17661 C 18.623967603734684 47.693159039359216 20.248234835440485 C 0.0 **** -0.24
17662 H 19.099475944294795 46.723935181123636 20.09243960793833 H 0.0 **** 0.06
17663 H 19.12215542175096 48.44452520816907 19.63417538996356 H 0.0 **** 0.06
17664 H 18.70273978168035 47.9714627931059 21.298884663645822 H 0.0 **** 0.06
17665 H 17.573452941288565 47.63042122237346 19.965218913093395 H 0.0 **** 0.06
17666 C 119.66557053525244 118.4241723669677 17.406782042177355 C 0.0 **** -0.24
17667 H 118.9398909323999 118.92091411910516 16.7628613413559 H 0.0 **** 0.06
17668 H 119.50071468911501 117.34667121185622 17.37664908598383 H 0.0 **** 0.06
17669 H 119.54641635410403 118.78135766675172 18.43010463063166 H 0.0 **** 0.06
17670 H 120.67361878494796 118.64794519718683 17.05932051544775 H 0.0 **** 0.06
17671 C 89.71165838127928 25.421455436531076 54.75698225772638 C 0.0 **** -0.24
17672 H 89.41087871823152 26.453427290671215 54.578393981011686 H 0.0 **** 0.06
17673 H 90.53137132524239 25.401292706162558 55.47605899601419 H 0.0 **** 0.06
17674 H 90.0403403553533 24.971395801585487 53.819453221167294 H 0.0 **** 0.06
17675 H 88.8665300370061 24.85875792062334 55.152638267544205 H 0.0 **** 0.06
17676 C 32.18849691926141 97.4664778661789 67.77014876604284 C 0.0 **** -0.24
17677 H 32.91551385294224 96.91523716845106 68.36781362620826 H 0.0 **** 0.06
17678 H 31.265254395225156 97.58239279442876 68.33901269848312 H 0.0 **** 0.06
17679 H 31.98254353936045 96.91754689891445 66.85230072796924 H 0.0 **** 0.06
17680 H 32.58980886594355 98.4489830835517 67.52449805666447 H 0.0 **** 0.06
17681 C 0.15587790716281802 57.755505386072116 27.184576242651318 C 0.0 **** -0.24
17682 H -0.15148507658075516 57.07627292967541 26.388727351940858 H 0.0 **** 0.06
17683 H 1.1555711085975844 58.13439469762514 26.972549097220224 H 0.0 **** 0.06
17684 H 0.1621315292833998 57.22181734136055 28.134455202441927 H 0.0 **** 0.06
17685 H -0.5453713272154772 58.58862372267683 27.239562784571262 H 0.0 **** 0.06
17686 C 30.242620662774726 51.71976080291938 16.04874522028649 C 0.0 **** -0.24
17687 H 30.142180042184975 52.73618554520567 16.429128635814777 H 0.0 **** 0.06
17688 H 31.113340250241436 51.661439432371196 15.394505027898674 H 0.0 **** 0.06
17689 H 29.347266090781062 51.45108018603895 15.48748673454267 H 0.0 **** 0.06
17690 H 30.3690401523545 51.029955192070986 16.883642521505493 H 0.0 **** 0.06
17691 C 119.60848566647908 91.25028575625535 25.046883553246403 C 0.0 **** -0.24
17692 H 119.94264405673519 90.52063582583611 24.308455258453336 H 0.0 **** 0.06
17693 H 118.84553502601614 91.89028833886724 24.603083852533956 H 0.0 **** 0.06
17694 H 120.45395015514026 91.85898311867894 25.364374243407724 H 0.0 **** 0.06
17695 H 119.1910033562786 90.72956051296586 25.907807933914683 H 0.0 **** 0.06
17696 C 15.545330413485296 45.60646541230591 46.08650809241641 C 0.0 **** -0.24
17697 H 16.586310972734807 45.31989729370562 46.23669907033792 H 0.0 **** 0.06
17698 H 15.446379316667823 46.68589617236907 46.19769712299944 H 0.0 **** 0.06
17699 H 14.920688671992309 45.10472814088328 46.82589335229039 H 0.0 **** 0.06
17700 H 15.229156295368426 45.312634584536596 45.085286570128915 H 0.0 **** 0.06
17701 C 116.36686732347708 31.867299080098007 34.63512411288411 C 0.0 **** -0.24
17702 H 116.71942855096229 32.87626998716496 34.85060138512367 H 0.0 **** 0.06
17703 H 117.10049158351629 31.351084547136594 34.01594955934359 H 0.0 **** 0.06
17704 H 115.41602543365309 31.920368932817752 34.10484548711353 H 0.0 **** 0.06
17705 H 116.23171003512857 31.322438511436786 35.56928126233065 H 0.0 **** 0.06
17706 C 28.964843033562317 105.38970611382257 107.9264738295688 C 0.0 **** -0.24
17707 H 28.18518802484232 105.40284851685215 107.16453387083126 H 0.0 **** 0.06
17708 H 29.923547613976922 105.6339568848739 107.46931609012401 H 0.0 **** 0.06
17709 H 29.01791098447032 104.3971411612232 108.3744456687898 H 0.0 **** 0.06
17710 H 28.731203290909292 106.1240516771478 108.69761922210253 H 0.0 **** 0.06
17711 C 105.27647249867456 80.01072748340846 59.43107443860811 C 0.0 **** -0.24
17712 H 105.0299727768446 80.83559748658524 58.76347094449079 H 0.0 **** 0.06
17713 H 104.85354020252706 80.2038533064935 60.41727414201887 H 0.0 **** 0.06
17714 H 106.35937733589131 79.91838132934265 59.51133280526079 H 0.0 **** 0.06
17715 H 104.86060143890683 79.08468329562004 59.03252504095411 H 0.0 **** 0.06
17716 C 1.110702236636353 55.05025191046007 31.169325450966312 C 0.0 **** -0.24
17717 H 1.6992444352098577 55.85024873857453 31.618516153480186 H 0.0 **** 0.06
17718 H 1.758902582030288 54.20047619924545 30.95217399167086 H 0.0 **** 0.06
17719 H 0.6582219207654685 55.407566952433065 30.244259152336156 H 0.0 **** 0.06
17720 H 0.3272468056561646 54.742210064116655 31.862046868917275 H 0.0 **** 0.06
17721 C 89.95921822951311 16.9166838082634 51.77082559853079 C 0.0 **** -0.24
17722 H 90.0652638643553 17.58710371864251 52.62389864061282 H 0.0 **** 0.06
17723 H 90.70585450800672 16.12585012635455 51.83562087245912 H 0.0 **** 0.06
17724 H 90.10245994871414 17.478582558437722 50.84783982601627 H 0.0 **** 0.06
17725 H 88.96185432952814 16.477374472235823 51.77772988617056 H 0.0 **** 0.06
17726 C 18.683063586984275 30.63689429105534 41.58050903260499 C 0.0 **** -0.24
17727 H 18.28299978133748 31.171459609993292 40.71857571974621 H 0.0 **** 0.06
17728 H 19.77100368539959 30.618819446793452 41.522935390881926 H 0.0 **** 0.06
17729 H 18.300737071499412 29.61596657997694 41.58229618006396 H 0.0 **** 0.06
17730 H 18.375241172001154 31.142497154487046 42.49549439082668 H 0.0 **** 0.06
17731 C 99.38103023335066 5.765912461284088 80.6553645464264 C 0.0 **** -0.24
17732 H 100.43578786435106 5.650619242786476 80.40601752733653 H 0.0 **** 0.06
17733 H 99.25113044610245 6.645106470077366 81.28631704955839 H 0.0 **** 0.06
17734 H 99.0352727049947 4.880622369859111 81.1900274057167 H 0.0 **** 0.06
17735 H 98.80197125090424 5.886330583313551 79.7393310613609 H 0.0 **** 0.06
17736 C 40.924777268360316 117.06705725616462 96.4039813297154 C 0.0 **** -0.24
17737 H 40.8915180991431 117.66863472349183 95.49656609232068 H 0.0 **** 0.06
17738 H 40.47953794032858 116.09058961757256 96.20953827783495 H 0.0 **** 0.06
17739 H 40.36590216945032 117.56976426792045 97.19406390714528 H 0.0 **** 0.06
17740 H 41.960796240189865 116.93913716597842 96.71683151790472 H 0.0 **** 0.06
17741 C 112.21107894183767 50.564383713394534 10.658289072672233 C 0.0 **** -0.24
17742 H 111.24729632399817 50.97779875300222 10.360810989950053 H 0.0 **** 0.06
17743 H 112.11552347628857 49.48861811559749 10.805658206843276 H 0.0 **** 0.06
17744 H 112.53540653068168 51.03230450103908 11.588913055510403 H 0.0 **** 0.06
17745 H 112.94723196103541 50.7613677981206 9.878187029646767 H 0.0 **** 0.06
17746 C 99.40111904609296 50.581020799010105 44.168927879933165 C 0.0 **** -0.24
17747 H 98.37795978506887 50.53525260363881 44.54128187798827 H 0.0 **** 0.06
17748 H 99.75123514817119 49.5741845527572 43.94311695845576 H 0.0 **** 0.06
17749 H 100.04434919188895 51.028142356053394 44.92732385976555 H 0.0 **** 0.06
17750 H 99.43135462584004 51.18863361674468 43.26452277159643 H 0.0 **** 0.06
17751 C 115.0131419659836 29.422286159145045 12.049605572597557 C 0.0 **** -0.24
17752 H 115.8652702896674 29.30334515086642 11.380840701353037 H 0.0 **** 0.06
17753 H 114.85576546977416 30.482207039298856 12.25139392899834 H 0.0 **** 0.06
17754 H 115.2117864159946 28.899000323184083 12.985543877385027 H 0.0 **** 0.06
17755 H 114.1220976304962 29.004668396736264 11.581324139299142 H 0.0 **** 0.06
17756 C 48.51756852585962 71.60404722314212 101.0005208511584 C 0.0 **** -0.24
17757 H 49.175747804337014 72.36618929136245 101.41956228208738 H 0.0 **** 0.06
17758 H 49.01064991373254 70.63290047999584 101.04587378934423 H 0.0 **** 0.06
17759 H 48.29324041182039 71.85003166561899 99.96219637029472 H 0.0 **** 0.06
17760 H 47.59127046430306 71.56943170934011 101.57454073856809 H 0.0 **** 0.06
17761 C 54.02024249020024 38.00007292673067 14.666635599854033 C 0.0 **** -0.24
17762 H 54.073723954046294 39.05519019477566 14.397305979363296 H 0.0 **** 0.06
17763 H 52.9826093233364 37.72653003090467 14.855608547973134 H 0.0 **** 0.06
17764 H 54.6126634986341 37.8244667408227 15.564080247463323 H 0.0 **** 0.06
17765 H 54.41345679859497 37.396412328463136 13.848333364164546 H 0.0 **** 0.06
17766 C 18.28226602084041 24.701577287484298 70.75205797081532 C 0.0 **** -0.24
17767 H 18.879390162428194 24.08102868916265 70.08386314378393 H 0.0 **** 0.06
17768 H 18.675843485904636 24.62361054374236 71.76642486512611 H 0.0 **** 0.06
17769 H 17.24764013650224 24.360713105409403 70.73584220241281 H 0.0 **** 0.06
17770 H 18.3291207449428 25.739408692607498 70.4219735173294 H 0.0 **** 0.06
17771 C 75.40508610894418 71.79236553873898 97.54563252086206 C 0.0 **** -0.24
17772 H 75.90514756339672 72.69400239783548 97.19034853815313 H 0.0 **** 0.06
17773 H 74.81511503763528 72.02947760873457 98.43161457169376 H 0.0 **** 0.06
17774 H 76.1501281526426 71.03871467171925 97.79550990863817 H 0.0 **** 0.06
17775 H 74.74880203059806 71.4100652750453 96.76336985098854 H 0.0 **** 0.06
17776 C 75.11977231725072 110.80352065508504 13.207645613909484 C 0.0 **** -0.24
17777 H 74.36438389757467 110.2788904195067 13.792059457599393 H 0.0 **** 0.06
17778 H 75.13696125659348 111.85513860121699 13.49730830749418 H 0.0 **** 0.06
17779 H 74.88137080524996 110.72213684649057 12.147766162475424 H 0.0 **** 0.06
17780 H 76.09730430480897 110.35902411243785 13.395425226635343 H 0.0 **** 0.06
17781 C 27.030469467940804 65.31964031534602 29.23336832896814 C 0.0 **** -0.24
17782 H 27.069650737174925 65.4053985687639 30.318923226535475 H 0.0 **** 0.06
17783 H 26.085583697370055 65.72367315881513 28.870453115752696 H 0.0 **** 0.06
17784 H 27.110971352668628 64.2703890175074 28.94919181137672 H 0.0 **** 0.06
17785 H 27.857661681484842 65.87890126702305 28.794860146524258 H 0.0 **** 0.06
17786 C 26.54754748109201 31.668958521551993 9.201381524190253 C 0.0 **** -0.24
17787 H 27.205283497604 31.064369563916514 8.576456179894365 H 0.0 **** 0.06
17788 H 26.7505393699891 31.45852695351843 10.251863331386915 H 0.0 **** 0.06
17789 H 25.509510405733806 31.4273243937104 8.975711328939667 H 0.0 **** 0.06
17790 H 26.725935244055393 32.72534260225869 9.000621449472021 H 0.0 **** 0.06
17791 C 39.55546835610721 12.91582436314771 6.418564463368853 C 0.0 **** -0.24
17792 H 39.45452501729656 11.985808286431809 5.859307226856572 H 0.0 **** 0.06
17793 H 40.41396345658433 13.473289727031435 6.043606232593646 H 0.0 **** 0.06
17794 H 39.70139589321866 12.69034382791618 7.475192987954273 H 0.0 **** 0.06
17795 H 38.65209562149647 13.51318842937087 6.295414135338518 H 0.0 **** 0.06
17796 C 62.893874280821876 117.27232326070992 101.16805773674517 C 0.0 **** -0.24
17797 H 62.78468204706786 116.41611242266788 101.8334449675915 H 0.0 **** 0.06
17798 H 63.81430388192618 117.1696274544081 100.5914242577868 H 0.0 **** 0.06
17799 H 62.93482363396171 118.18818726638585 101.75804199794126 H 0.0 **** 0.06
17800 H 62.04279282382916 117.31568132864282 100.48849570405824 H 0.0 **** 0.06
17801 C 105.46720596557185 90.6324579745694 85.32215985201503 C 0.0 **** -0.24
17802 H 106.38380614338007 90.34236266160326 85.8361637190311 H 0.0 **** 0.06
17803 H 105.29442670883472 91.69949595495521 85.4654024876395 H 0.0 **** 0.06
17804 H 104.6285284818918 90.06971182100372 85.72989000077206 H 0.0 **** 0.06
17805 H 105.56543484026597 90.41981272414623 84.25765423378346 H 0.0 **** 0.06
17806 C 25.90016168537454 77.14071133542146 82.80309338841442 C 0.0 **** -0.24
17807 H 25.747183901669302 76.65829303160916 83.76833402742142 H 0.0 **** 0.06
17808 H 26.959498645775 77.11412123413601 82.54834393683251 H 0.0 **** 0.06
17809 H 25.564880433279257 78.17641773048007 82.85638377563635 H 0.0 **** 0.06
17810 H 25.329320163308125 76.6132714891443 82.03868426399998 H 0.0 **** 0.06
17811 C 52.48947238073771 27.2087856197858 71.79199325887231 C 0.0 **** -0.24
17812 H 51.46916141971411 26.853581700975127 71.6456960405448 H 0.0 **** 0.06
17813 H 53.12335926652139 26.376103948070153 72.09703716630096 H 0.0 **** 0.06
17814 H 52.498572817934246 27.9769472494838 72.56583372750984 H 0.0 **** 0.06
17815 H 52.86398987228395 27.628857209254733 70.85933439711738 H 0.0 **** 0.06
17816 C 29.076283942526317 1.838981552388372 42.090676846977544 C 0.0 **** -0.24
17817 H 28.598150172404274 2.2946315873434404 42.95792034557883 H 0.0 **** 0.06
17818 H 29.829419009755156 1.1241856038726237 42.42454738448757 H 0.0 **** 0.06
17819 H 29.55099020431564 2.613423906063513 41.48892932090192 H 0.0 **** 0.06
17820 H 28.324689697404978 1.3223879006546788 41.4921809637722 H 0.0 **** 0.06
17821 C 79.7224495850206 4.099233623194195 49.71814658785652 C 0.0 **** -0.24
17822 H 80.3436736272838 3.2049071631132335 49.67494967184567 H 0.0 **** 0.06
17823 H 79.24166677275127 4.253842561407993 48.75181117251313 H 0.0 **** 0.06
17824 H 80.3440662820029 4.962178068613682 49.957127131554245 H 0.0 **** 0.06
17825 H 78.96033715344868 3.9750974420505827 50.48761652931017 H 0.0 **** 0.06
17826 C 42.61550163497762 53.43611168947771 39.4877986398582 C 0.0 **** -0.24
17827 H 43.49655213189621 54.07330355971831 39.40168383705421 H 0.0 **** 0.06
17828 H 42.63369511052272 52.919906365294 40.448174215609725 H 0.0 **** 0.06
17829 H 42.61636666831774 52.70357038697068 38.68088563338651 H 0.0 **** 0.06
17830 H 41.717019258492 54.04957187415323 39.42210130402336 H 0.0 **** 0.06
17831 C 83.2908856093909 88.0218447473519 63.64643205199348 C 0.0 **** -0.24
17832 H 84.12049032492689 87.3990673183132 63.98082614365254 H 0.0 **** 0.06
17833 H 82.34938192571997 87.57087983429801 63.961390207549336 H 0.0 **** 0.06
17834 H 83.31106315647196 88.10065530795816 62.559789124085434 H 0.0 **** 0.06
17835 H 83.38286484437435 89.0156220384884 64.0844978425726 H 0.0 **** 0.06
17836 C 118.22852152277605 100.69665948605274 16.16843204201291 C 0.0 **** -0.24
17837 H 118.58188874515471 100.71722375722521 15.137706170161835 H 0.0 **** 0.06
17838 H 118.16496393537902 99.66290604876127 16.51005971221531 H 0.0 **** 0.06
17839 H 117.24409707136357 101.15985338349725 16.22514158776812 H 0.0 **** 0.06
17840 H 118.92589496675699 101.2455191229185 16.801869921934326 H 0.0 **** 0.06
17841 C 111.75841090848259 84.84182836260604 99.59910603877609 C 0.0 **** -0.24
17842 H 110.96220171701023 84.60060698604039 100.30377499155799 H 0.0 **** 0.06
17843 H 112.68665427464535 85.01303506232591 100.14583883121412 H 0.0 **** 0.06
17844 H 111.49148746467648 85.74208141517025 99.04467885621636 H 0.0 **** 0.06
17845 H 111.89286135470611 84.01323381518509 98.90460246052675 H 0.0 **** 0.06
17846 C 8.74735616299705 71.73909202516387 42.40334741089231 C 0.0 **** -0.24
17847 H 8.355865520369207 72.70750948621247 42.092008651801734 H 0.0 **** 0.06
17848 H 9.806972612219852 71.6777528673521 42.15426580864357 H 0.0 **** 0.06
17849 H 8.206107551702388 70.94610010483055 41.88833787312507 H 0.0 **** 0.06
17850 H 8.619821012723577 71.62525586252437 43.480003929906445 H 0.0 **** 0.06
17851 C 112.62630825401433 60.579216397398625 27.089204485727393 C 0.0 **** -0.24
17852 H 112.22539178536863 59.569263693799314 26.99511020480577 H 0.0 **** 0.06
17853 H 113.26176738808542 60.79816454961332 26.22977580888434 H 0.0 **** 0.06
17854 H 113.21367009343113 60.65238210556481 28.003692263771683 H 0.0 **** 0.06
17855 H 111.80426075165786 61.29327375786545 27.125468174064792 H 0.0 **** 0.06
17856 C 81.33875142264566 8.848414186806593 106.34071315634708 C 0.0 **** -0.24
17857 H 80.56040549271876 8.272097096412075 105.84065381047716 H 0.0 **** 0.06
17858 H 82.05361903720515 9.210507022404041 105.60125575525183 H 0.0 **** 0.06
17859 H 81.85253531063805 8.214687907409797 107.06335084624925 H 0.0 **** 0.06
17860 H 80.8884458500209 9.696364721000062 106.85759221341004 H 0.0 **** 0.06
17861 C 79.24709401379911 14.320122386282442 48.31483021818883 C 0.0 **** -0.24
17862 H 80.04729030210103 14.97381962705472 47.965256129880686 H 0.0 **** 0.06
17863 H 79.6749288108143 13.498389485492659 48.88943318983968 H 0.0 **** 0.06
17864 H 78.70435997114379 13.920885210956772 47.45730958746168 H 0.0 **** 0.06
17865 H 78.56378527702083 14.88885021371761 48.945339493794904 H 0.0 **** 0.06
17866 C 45.822033324728636 98.63052322599208 13.294127084526423 C 0.0 **** -0.24
17867 H 44.94239343291977 98.37483700441535 13.88524244668114 H 0.0 **** 0.06
17868 H 46.20648356967047 99.59849493693525 13.615923475802358 H 0.0 **** 0.06
17869 H 45.54926880663402 98.67972452132085 12.24024908177298 H 0.0 **** 0.06
17870 H 46.588402571592525 97.86944729077686 13.436242011340116 H 0.0 **** 0.06
17871 C 116.11874635578812 82.53035196195378 101.45522039862823 C 0.0 **** -0.24
17872 H 116.8553219969894 82.93105414677419 100.75909599141482 H 0.0 **** 0.06
17873 H 116.14346147276447 83.10735547958265 102.38039136105726 H 0.0 **** 0.06
17874 H 116.3524984537886 81.48793064175075 101.6703595331229 H 0.0 **** 0.06
17875 H 115.12617573709431 82.59652485094969 101.01190929642652 H 0.0 **** 0.06
17876 C 62.165722244064476 39.31613423326314 19.328568842004366 C 0.0 **** -0.24
17877 H 61.20513325632994 38.805634848230966 19.26313737472388 H 0.0 **** 0.06
17878 H 62.94147883821443 38.59817538721188 19.592850653305536 H 0.0 **** 0.06
17879 H 62.113031913544624 40.092275827824494 20.092940582467843 H 0.0 **** 0.06
17880 H 62.40163317099269 39.77003427255676 18.36629294962625 H 0.0 **** 0.06
17881 C 43.0900883332468 29.58295980914903 82.80799445774903 C 0.0 **** -0.24
17882 H 42.354535265720244 28.948017874682563 83.30205676567164 H 0.0 **** 0.06
17883 H 44.061099481723375 29.45323677093485 83.28857489192376 H 0.0 **** 0.06
17884 H 42.782140021652424 30.62486201603859 82.88699873647079 H 0.0 **** 0.06
17885 H 43.16349562918617 29.302938579716653 81.75757380011896 H 0.0 **** 0.06
17886 C 40.69709310904708 8.61623630967378 105.01365574780897 C 0.0 **** -0.24
17887 H 40.53204204400075 9.049130558488116 104.02689799786933 H 0.0 **** 0.06
17888 H 40.59253535556474 9.391239100381881 105.77280426204115 H 0.0 **** 0.06
17889 H 41.70135604311811 8.193947626179778 105.06043618680673 H 0.0 **** 0.06
17890 H 39.96354314677112 7.830075198901568 105.1926202521411 H 0.0 **** 0.06
17891 C 12.821144783952072 112.46972887078837 122.03161875612311 C 0.0 **** -0.24
17892 H 12.316252673887096 111.82094884607403 121.31686601009282 H 0.0 **** 0.06
17893 H 12.825673526017841 113.49265157633982 121.65361766695241 H 0.0 **** 0.06
17894 H 13.846945445252985 112.12821251933875 122.17036931235363 H 0.0 **** 0.06
17895 H 12.295295544560943 112.43816080860196 122.98646493620026 H 0.0 **** 0.06
17896 C 65.56298408274742 42.3985492266508 54.30351480132497 C 0.0 **** -0.24
17897 H 66.35755562155734 42.61873561660204 53.59068091851477 H 0.0 **** 0.06
17898 H 64.97699191591349 43.30013009230774 54.48454602119886 H 0.0 **** 0.06
17899 H 66.00086258525806 42.05610465312438 55.2411753296527 H 0.0 **** 0.06
17900 H 64.91664473404316 41.62034038533247 53.89852031401836 H 0.0 **** 0.06
17901 C 82.93377099833256 77.84516246170134 31.235939384381567 C 0.0 **** -0.24
17902 H 82.1851917366194 77.14361086872665 31.605546796434396 H 0.0 **** 0.06
17903 H 82.50908961169819 78.84995560321431 31.214850997135557 H 0.0 **** 0.06
17904 H 83.23621050411444 77.55668784673014 30.22871948241759 H 0.0 **** 0.06
17905 H 83.80150033935047 77.83157866708717 31.894436404495252 H 0.0 **** 0.06
17906 C 40.721194583961335 58.62893272834668 56.080086588085976 C 0.0 **** -0.24
17907 H 40.65611520902405 57.95497624785503 55.22413586896454 H 0.0 **** 0.06
17908 H 40.45396456822431 59.637931408063935 55.767379271021525 H 0.0 **** 0.06
17909 H 41.73974446830107 58.625857606948045 56.467260663116576 H 0.0 **** 0.06
17910 H 40.03549046804625 58.29399970151252 56.85797657233951 H 0.0 **** 0.06
17911 C 116.55059652837042 55.419501368752606 33.919206479682266 C 0.0 **** -0.24
17912 H 116.15922608089781 54.838138109797 33.084872603702436 H 0.0 **** 0.06
17913 H 117.62098843187582 55.23710753713081 34.01908060610236 H 0.0 **** 0.06
17914 H 116.04487129595105 55.123523782213624 34.83799990341485 H 0.0 **** 0.06
17915 H 116.37836234302168 56.48006634117422 33.73530035171324 H 0.0 **** 0.06
17916 C 65.35920928757778 86.26479902440556 98.25428618089623 C 0.0 **** -0.24
17917 H 65.02181411063819 85.47896613870964 97.57939490847906 H 0.0 **** 0.06
17918 H 64.65004645003467 87.09309364996608 98.23061568268997 H 0.0 **** 0.06
17919 H 66.34119965433803 86.61831189628197 97.93822960771914 H 0.0 **** 0.06
17920 H 65.4236452970168 85.8704637617231 99.26836104239291 H 0.0 **** 0.06
17921 C 35.274351742985345 47.36814272295004 93.91308455680874 C 0.0 **** -0.24
17922 H 34.87252037915775 47.169657689247344 92.91987796589314 H 0.0 **** 0.06
17923 H 36.329695710797154 47.096737196118085 93.93992259662852 H 0.0 **** 0.06
17924 H 34.72866538576969 46.7802087132693 94.65051528654146 H 0.0 **** 0.06
17925 H 35.16589774569687 48.42892700256493 94.14294249021961 H 0.0 **** 0.06
17926 C 71.86149210422894 0.7912750371856703 76.5045656887772 C 0.0 **** -0.24
17927 H 70.80468783212783 0.6726334729910519 76.74069056863394 H 0.0 **** 0.06
17928 H 71.99346907218305 1.6594874197392642 75.85866981175292 H 0.0 **** 0.06
17929 H 72.22165868054606 -0.10074890859647212 75.99251645307208 H 0.0 **** 0.06
17930 H 72.42585315957922 0.9348354101947223 77.42555868834393 H 0.0 **** 0.06
17931 C 102.53294211866299 2.8010492867675225 72.37012635071952 C 0.0 **** -0.24
17932 H 103.09185616610793 3.346263405834577 73.13094814510151 H 0.0 **** 0.06
17933 H 102.96214890438725 1.8066051250368105 72.24842809756973 H 0.0 **** 0.06
17934 H 102.58772640784795 3.3389376513092657 71.4243436868637 H 0.0 **** 0.06
17935 H 101.4909900772746 2.712837554843162 72.67848618399941 H 0.0 **** 0.06
17936 C 56.77016639018078 24.928599079903165 24.55278625372563 C 0.0 **** -0.24
17937 H 56.96555273988577 25.990103935918796 24.405913325097472 H 0.0 **** 0.06
17938 H 57.378213157597166 24.347252940960175 23.85899163252399 H 0.0 **** 0.06
17939 H 55.71455549812804 24.724867638466094 24.37058217995957 H 0.0 **** 0.06
17940 H 57.02181820205799 24.650848730816506 25.576644288238278 H 0.0 **** 0.06
17941 C 60.82719140707263 116.25470673258485 83.88131504218683 C 0.0 **** -0.24
17942 H 60.22055307050164 115.43012457281816 84.25648747292593 H 0.0 **** 0.06
17943 H 60.88766130129369 116.19560924520198 82.79440840821582 H 0.0 **** 0.06
17944 H 61.82879897628305 116.1909603265454 84.30624066827266 H 0.0 **** 0.06
17945 H 60.36957349047236 117.2020634470523 84.16924093817198 H 0.0 **** 0.06
17946 C 91.05671539521308 82.72588452225747 55.38655741533416 C 0.0 **** -0.24
17947 H 91.1135105729071 83.67826569617134 55.91257497430511 H 0.0 **** 0.06
17948 H 91.78841876042213 82.03496717725142 55.806390224546156 H 0.0 **** 0.06
17949 H 91.26848256128773 82.88256026168267 54.32828402070306 H 0.0 **** 0.06
17950 H 90.05633030516458 82.30867446193386 55.499329467115025 H 0.0 **** 0.06
17951 C 6.538918655616158 5.346455238688193 79.5019246686636 C 0.0 **** -0.24
17952 H 6.553614762823912 4.256907286043447 79.46971555146948 H 0.0 **** 0.06
17953 H 7.203199021041684 5.741044146209077 78.73266440436339 H 0.0 **** 0.06
17954 H 6.876491081257171 5.684376123817486 80.48223610928449 H 0.0 **** 0.06
17955 H 5.523507573244842 5.70134478380761 79.32484025855004 H 0.0 **** 0.06
17956 C 3.425554069066351 116.9110110457558 49.206419706768514 C 0.0 **** -0.24
17957 H 4.023729157114872 117.33591432865859 48.40051408032291 H 0.0 **** 0.06
17958 H 4.075945310075127 116.6487655615552 50.041631499527085 H 0.0 **** 0.06
17959 H 2.915523480582692 116.01711573303385 48.847585359328285 H 0.0 **** 0.06
17960 H 2.687770503331521 117.64343006310827 49.5361438323023 H 0.0 **** 0.06
17961 C 47.3658494263105 23.117512658628215 73.70055624225483 C 0.0 **** -0.24
17962 H 47.07170784891077 23.37612029181389 72.68302934328796 H 0.0 **** 0.06
17963 H 48.19053723886575 22.40520833550505 73.6708290298115 H 0.0 **** 0.06
17964 H 46.518076206238554 22.671948712032844 74.22092098135283 H 0.0 **** 0.06
17965 H 47.681869195460834 24.0185075227225 74.22671392940808 H 0.0 **** 0.06
17966 C 121.61120617618866 9.033272660587102 4.230717315859806 C 0.0 **** -0.24
17967 H 120.862803367207 8.302061308458462 3.9232707517003433 H 0.0 **** 0.06
17968 H 121.95160794434776 8.800548961206061 5.2397269525160795 H 0.0 **** 0.06
17969 H 121.17024853908447 10.030432173028885 4.2162450319506775 H 0.0 **** 0.06
17970 H 122.45563409117977 8.99886037874603 3.5433765407028517 H 0.0 **** 0.06
17971 C 104.60623658084896 72.7964472467313 81.78749909553787 C 0.0 **** -0.24
17972 H 104.18229792201521 72.92063053910721 80.79064118422392 H 0.0 **** 0.06
17973 H 103.91838438198127 73.20386724629032 82.52860869658983 H 0.0 **** 0.06
17974 H 105.55824855561974 73.3238977022371 81.84486921317477 H 0.0 **** 0.06
17975 H 104.76584966562973 71.73623532229004 81.98397166088492 H 0.0 **** 0.06
17976 C 102.75149928991345 106.82735106737789 57.21830375991112 C 0.0 **** -0.24
17977 H 103.19150984069452 107.74291325567702 56.82151062641367 H 0.0 **** 0.06
17978 H 102.85537284349044 106.02795237313427 56.48454416113742 H 0.0 **** 0.06
17979 H 101.69451251142999 106.99373561144989 57.42798758276882 H 0.0 **** 0.06
17980 H 103.26514541858035 106.54649373196762 58.13825266707812 H 0.0 **** 0.06
17981 C 65.85465707987458 70.69583631974794 96.15885123798199 C 0.0 **** -0.24
17982 H 66.39288822999038 70.41071863769554 95.2549666992229 H 0.0 **** 0.06
17983 H 65.72836779550417 69.82177377643151 96.79685182859268 H 0.0 **** 0.06
17984 H 64.87642424667811 71.09405270717184 95.88913774036271 H 0.0 **** 0.06
17985 H 66.42197855977614 71.45845739713357 96.6940107063794 H 0.0 **** 0.06
17986 C 29.024701139745275 86.15090432670473 85.59808709462831 C 0.0 **** -0.24
17987 H 29.3121995987878 85.2148238659563 86.07687842541841 H 0.0 **** 0.06
17988 H 28.709760157209644 85.95338724076876 84.57354705383085 H 0.0 **** 0.06
17989 H 29.874976381031132 86.8332415849938 85.59251610861998 H 0.0 **** 0.06
17990 H 28.199913047899713 86.60237807887549 86.15086668088148 H 0.0 **** 0.06
17991 C 1.5561802706903762 55.71189319578599 76.62478060285753 C 0.0 **** -0.24
17992 H 0.594279182491448 56.00400118675006 77.04563488263702 H 0.0 **** 0.06
17993 H 2.334196535611227 55.83115476333961 77.37881210007336 H 0.0 **** 0.06
17994 H 1.7830435304136927 56.34254072966087 75.76522846740826 H 0.0 **** 0.06
17995 H 1.5129631650711701 54.66912412722249 76.30790497043884 H 0.0 **** 0.06
17996 C 57.57297760422048 34.99286438214767 119.3570103480047 C 0.0 **** -0.24
17997 H 57.70635782697184 35.70439944957894 120.17170211549089 H 0.0 **** 0.06
17998 H 56.80900388938005 34.26468489198618 119.63112524080721 H 0.0 **** 0.06
17999 H 58.51478965759955 34.47729813120975 119.16808536587276 H 0.0 **** 0.06
18000 H 57.26274153914764 35.52422993911037 118.45769487675635 H 0.0 **** 0.06
18001 C 29.982469622143412 107.6866999130182 69.99030962621663 C 0.0 **** -0.24
18002 H 30.048633263653784 108.20428015173874 69.03350129719604 H 0.0 **** 0.06
18003 H 29.421880303941435 108.29897248841459 70.69692200765184 H 0.0 **** 0.06
18004 H 30.986285717900415 107.51143052575355 70.37858925991503 H 0.0 **** 0.06
18005 H 29.474776134629707 106.732411164486 69.85240966539811 H 0.0 **** 0.06
18006 C 81.80221290884776 96.32731874476173 46.623072024812004 C 0.0 **** -0.24
18007 H 82.42074293336108 96.87536787576053 45.913109472517256 H 0.0 **** 0.06
18008 H 80.91895514642857 95.94231771761656 46.11340442240594 H 0.0 **** 0.06
18009 H 81.49516231529051 96.99540056850103 47.428009763496505 H 0.0 **** 0.06
18010 H 82.37306468903515 95.49759964151639 47.03815334233284 H 0.0 **** 0.06
18011 C 103.757480230032 16.705303313955152 39.66897761012709 C 0.0 **** -0.24
18012 H 103.56583542521156 17.687298980499445 39.235120520672865 H 0.0 **** 0.06
18013 H 102.96426600788106 16.01704736393948 39.37415025537544 H 0.0 **** 0.06
18014 H 103.78136234046625 16.788145307429698 40.75585755455094 H 0.0 **** 0.06
18015 H 104.71582646870453 16.33038601464487 39.31133873154255 H 0.0 **** 0.06
18016 C 97.78447407492641 57.38183678467189 13.172603092525037 C 0.0 **** -0.24
18017 H 97.0435012190924 58.16043488394615 12.993775500782917 H 0.0 **** 0.06
18018 H 98.14238406026814 56.995175622336916 12.217972921805142 H 0.0 **** 0.06
18019 H 97.3307570227023 56.57219486638007 13.745570820328624 H 0.0 **** 0.06
18020 H 98.62093622947773 57.79874857893367 13.733612678234948 H 0.0 **** 0.06
18021 C 5.574803339169762 26.081069166147998 10.834958792058458 C 0.0 **** -0.24
18022 H 4.739436419232106 25.84197973480744 11.493443043871835 H 0.0 **** 0.06
18023 H 6.51323459949549 25.898950070214056 11.359019431270017 H 0.0 **** 0.06
18024 H 5.519087413503712 27.128936672992282 10.542670463235169 H 0.0 **** 0.06
18025 H 5.5266536511921345 25.452460427003558 9.945949920822962 H 0.0 **** 0.06
18026 C 111.05736669136436 114.25991309831329 115.7446569426667 C 0.0 **** -0.24
18027 H 110.74507261130401 114.34531989149744 114.70300569866026 H 0.0 **** 0.06
18028 H 110.2106637491969 113.93803866413288 116.35146757234858 H 0.0 **** 0.06
18029 H 111.41136422092526 115.22787829385459 116.09758071257158 H 0.0 **** 0.06
18030 H 111.86096905435232 113.52807541922978 115.82342211897131 H 0.0 **** 0.06
18031 C 22.98227190284392 19.67632081684326 2.941535183199875 C 0.0 **** -0.24
18032 H 22.560193751135117 20.28868326161887 2.1445029281070322 H 0.0 **** 0.06
18033 H 24.014389056335617 19.421861302963293 2.696235810138763 H 0.0 **** 0.06
18034 H 22.398268214386036 18.76233328072007 3.046022325853995 H 0.0 **** 0.06
18035 H 22.958277120599064 20.232618183578296 3.878490149861287 H 0.0 **** 0.06
18036 C 109.19982996695586 119.87945741431977 95.16679256703986 C 0.0 **** -0.24
18037 H 108.39208116699137 119.15586911847561 95.05250328964621 H 0.0 **** 0.06
18038 H 109.15402900375477 120.32105729111967 96.1620497821583 H 0.0 **** 0.06
18039 H 109.09307623367135 120.66333353791573 94.41629003632613 H 0.0 **** 0.06
18040 H 110.15858207604549 119.37793387246893 95.03341834668481 H 0.0 **** 0.06
18041 C 103.59823436847705 104.41325454329944 115.06953483114422 C 0.0 **** -0.24
18042 H 104.08689796566838 105.34875933598425 114.7974635276594 H 0.0 **** 0.06
18043 H 102.82573314211757 104.61051694306718 115.81335710613467 H 0.0 **** 0.06
18044 H 104.33451067733756 103.72530184307877 115.48473284408526 H 0.0 **** 0.06
18045 H 103.14524440213165 103.96876651047631 114.18384664747673 H 0.0 **** 0.06
18046 C 13.512673456178987 36.16881064977761 103.69442321216997 C 0.0 **** -0.24
18047 H 13.752575058707805 37.22860331205807 103.60476330270816 H 0.0 **** 0.06
18048 H 12.604601246266725 35.9542443566979 103.1300595401103 H 0.0 **** 0.06
18049 H 13.357177263812332 35.91808307280492 104.7432762484141 H 0.0 **** 0.06
18050 H 14.336572681445205 35.57569992567416 103.29659044967943 H 0.0 **** 0.06
18051 C 6.511839738615208 22.106057708329566 70.05764762332001 C 0.0 **** -0.24
18052 H 6.568764408186951 21.044649925749894 70.29955099999506 H 0.0 **** 0.06
18053 H 6.310513328306882 22.22457218393039 68.99296075546584 H 0.0 **** 0.06
18054 H 7.458720170540403 22.5851297106531 70.30434081172774 H 0.0 **** 0.06
18055 H 5.710390235997551 22.567062038893845 70.63381492490913 H 0.0 **** 0.06
18056 C 96.10143353721946 53.058966379481404 105.33243806187795 C 0.0 **** -0.24
18057 H 95.83416087959958 53.426007468332955 104.3408684148365 H 0.0 **** 0.06
18058 H 95.77188606996259 53.77663968756201 106.0846399593828 H 0.0 **** 0.06
18059 H 97.18225904660324 52.93659855080972 105.39597868974397 H 0.0 **** 0.06
18060 H 95.61580512174174 52.09960655039154 105.5075974803608 H 0.0 **** 0.06
18061 C 42.5799684529627 45.846773642432154 89.77291251908093 C 0.0 **** -0.24
18062 H 41.64087060130075 46.26605312938888 89.4126736665705 H 0.0 **** 0.06
18063 H 43.41363081920386 46.34851942939089 89.28060630397948 H 0.0 **** 0.06
18064 H 42.612036092811735 44.78050015211075 89.5457986271579 H 0.0 **** 0.06
18065 H 42.65347689208866 45.99118924768442 90.85075841083707 H 0.0 **** 0.06
18066 C 110.5048821234196 9.440136219949892 28.794580652419853 C 0.0 **** -0.24
18067 H 109.97406861538374 9.516330966983617 27.84533961952161 H 0.0 **** 0.06
18068 H 111.57535630178296 9.348497977085003 28.604963365456342 H 0.0 **** 0.06
18069 H 110.15540512897513 8.561421343121907 29.33627623369057 H 0.0 **** 0.06
18070 H 110.3162107946005 10.333195084696627 29.389621049376956 H 0.0 **** 0.06
18071 C 64.99029511719223 104.22086558756413 36.38985719669594 C 0.0 **** -0.24
18072 H 66.0409999224072 104.06267027711766 36.63033321344352 H 0.0 **** 0.06
18073 H 64.46446908777881 103.26709297189876 36.414369228312154 H 0.0 **** 0.06
18074 H 64.90812793019052 104.6567279609832 35.39438110379069 H 0.0 **** 0.06
18075 H 64.54899791294883 104.89870212484118 37.12028619034837 H 0.0 **** 0.06
18076 C 88.69899936973144 6.802176117230445 56.64896467444248 C 0.0 **** -0.24
18077 H 89.5779598174338 7.4464058459291635 56.655421585574516 H 0.0 **** 0.06
18078 H 88.20942102656898 6.865362051744654 55.67693754738593 H 0.0 **** 0.06
18079 H 88.00680772646788 7.12450563875565 57.42716809696151 H 0.0 **** 0.06
18080 H 89.00268615383189 5.772043086395982 56.83661443713356 H 0.0 **** 0.06
18081 C 101.24397346197264 19.349509539500673 68.7385107673829 C 0.0 **** -0.24
18082 H 101.54478825477582 20.04438144378031 69.52238487021367 H 0.0 **** 0.06
18083 H 100.29471512232973 18.887091982463573 69.00890997789995 H 0.0 **** 0.06
18084 H 102.00622015507841 18.578505346865967 68.62564071494523 H 0.0 **** 0.06
18085 H 101.1309976290737 19.88985183479312 67.79855768229709 H 0.0 **** 0.06
18086 C 36.675951095550545 44.759793180513725 79.65727101894333 C 0.0 **** -0.24
18087 H 36.50073957617019 44.53339738453195 80.7090390541714 H 0.0 **** 0.06
18088 H 37.744643908944454 44.88963477092656 79.48698903767698 H 0.0 **** 0.06
18089 H 36.15049490956778 45.6773202020654 79.39061929115815 H 0.0 **** 0.06
18090 H 36.30637314193797 43.938747080564156 79.04320054291318 H 0.0 **** 0.06
18091 C 44.20820417337433 66.63690360525015 87.5028987333913 C 0.0 **** -0.24
18092 H 44.57839720056987 65.81338458806849 86.89207167678336 H 0.0 **** 0.06
18093 H 45.0139839667562 67.35215880479933 87.67365048403911 H 0.0 **** 0.06
18094 H 43.857119367234674 66.25010111437459 88.46000450969353 H 0.0 **** 0.06
18095 H 43.386276865398074 67.13150950344755 86.98601906277554 H 0.0 **** 0.06
18096 C 70.14171058426734 18.67040660983531 50.575977049567655 C 0.0 **** -0.24
18097 H 70.90072886105924 18.717864454470003 51.35644300231925 H 0.0 **** 0.06
18098 H 69.85988029433997 17.63084426918269 50.40559508191224 H 0.0 **** 0.06
18099 H 70.53963810180875 19.09545476609466 49.65539853890428 H 0.0 **** 0.06
18100 H 69.26432134241938 19.238345736039605 50.88893154954211 H 0.0 **** 0.06
18101 C 7.260064328250138 36.61771080188323 6.051209786926933 C 0.0 **** -0.24
18102 H 6.96933962560351 36.61269111420565 7.101528813520446 H 0.0 **** 0.06
18103 H 6.837680271176225 37.49463590573766 5.560763876746449 H 0.0 **** 0.06
18104 H 6.886586695524414 35.71453706357505 5.56691041944643 H 0.0 **** 0.06
18105 H 8.347522552981587 36.64718777228314 5.974620535284345 H 0.0 **** 0.06
18106 C 108.09238503785213 107.16915878590854 120.72736243037505 C 0.0 **** -0.24
18107 H 108.79011680780008 108.00582504600592 120.76171459128621 H 0.0 **** 0.06
18108 H 107.07364575028356 107.54188529090419 120.8396140017975 H 0.0 **** 0.06
18109 H 108.3172878441996 106.47520382943287 121.53650599396305 H 0.0 **** 0.06
18110 H 108.18805511065057 106.65577956979615 119.77085779397034 H 0.0 **** 0.06
18111 C 71.31046344607813 64.0681495253123 46.361674663809225 C 0.0 **** -0.24
18112 H 71.74556415235514 63.48001577869312 47.16974471370787 H 0.0 **** 0.06
18113 H 70.80108599384971 64.93680480782177 46.779277056138255 H 0.0 **** 0.06
18114 H 70.5945581535965 63.45671904533837 45.81228908475799 H 0.0 **** 0.06
18115 H 72.10025300481072 64.39799661433935 45.68669875086536 H 0.0 **** 0.06
18116 C 42.58535443048095 76.88277924052343 33.48801629517594 C 0.0 **** -0.24
18117 H 42.695196475847865 77.7727159632737 32.870005481262 H 0.0 **** 0.06
18118 H 41.79564030135316 77.04638103591776 34.222034848656534 H 0.0 **** 0.06
18119 H 43.524553075753545 76.68029753018811 34.00410375406481 H 0.0 **** 0.06
18120 H 42.326461619636376 76.03175398613988 32.858331739521574 H 0.0 **** 0.06
18121 C 93.00436614907943 74.21516690224388 118.451733521058 C 0.0 **** -0.24
18122 H 92.85938872255221 74.80600837080087 119.35631245577306 H 0.0 **** 0.06
18123 H 94.02825620733651 74.33576765856625 118.09846632400402 H 0.0 **** 0.06
18124 H 92.31048871979473 74.5539443630027 117.68232655394007 H 0.0 **** 0.06
18125 H 92.81726828020828 73.16351813373126 118.67147302248594 H 0.0 **** 0.06
18126 C 119.32940165700816 76.83953050896562 83.3611567235011 C 0.0 **** -0.24
18127 H 119.52072657894334 77.7215120378518 83.97236657657521 H 0.0 **** 0.06
18128 H 119.53639761557822 77.0694539937972 82.31641276287456 H 0.0 **** 0.06
18129 H 118.28549379877961 76.54304426354341 83.46862057696836 H 0.0 **** 0.06
18130 H 119.97373691101389 76.02419090430774 83.68995230725716 H 0.0 **** 0.06
18131 C 7.3727139142947635 99.19528859294894 75.53559026990104 C 0.0 **** -0.24
18132 H 7.742051807573432 98.84880538465214 74.57029702719728 H 0.0 **** 0.06
18133 H 6.603252781004585 99.95145606598874 75.3797459607959 H 0.0 **** 0.06
18134 H 8.195984929326926 99.6256910965418 76.10578379146958 H 0.0 **** 0.06
18135 H 6.950079464558712 98.35346898165716 76.0852174741261 H 0.0 **** 0.06
18136 C 60.9063332847042 80.38496396006732 12.47939317757789 C 0.0 **** -0.24
18137 H 61.71259443657266 79.68424814067438 12.69342204445519 H 0.0 **** 0.06
18138 H 60.17883114775424 80.362436550745 13.291060789209666 H 0.0 **** 0.06
18139 H 60.41834820364636 80.10402110263661 11.545763253467669 H 0.0 **** 0.06
18140 H 61.31585892995605 81.39156722150241 12.385575047619739 H 0.0 **** 0.06
18141 C 64.56571080098001 113.77344189437409 21.062007538645418 C 0.0 **** -0.24
18142 H 63.49857016525741 113.8107121546555 21.283030098559465 H 0.0 **** 0.06
18143 H 64.73382142683667 114.08144315791898 20.02994253179594 H 0.0 **** 0.06
18144 H 64.92950252936103 112.75561559899731 21.201647518142153 H 0.0 **** 0.06
18145 H 65.09892038607606 114.44552467129 21.73422357251576 H 0.0 **** 0.06
18146 C 103.04156191983827 80.95332809201312 40.88874528794307 C 0.0 **** -0.24
18147 H 103.05691329212357 80.4756335506859 39.90881854473483 H 0.0 **** 0.06
18148 H 104.0464221131686 81.28966990299608 41.14473420125026 H 0.0 **** 0.06
18149 H 102.69596635128596 80.2376933090149 41.63456676370748 H 0.0 **** 0.06
18150 H 102.366302914318 81.80887699919782 40.864986199085976 H 0.0 **** 0.06
18151 C 61.873867076523936 6.408455900588706 75.79836783161957 C 0.0 **** -0.24
18152 H 61.06884196603414 6.901137647763335 75.25312348636794 H 0.0 **** 0.06
18153 H 62.8207868735451 6.586391926918964 75.28719087386176 H 0.0 **** 0.06
18154 H 61.67949657114343 5.337429130313069 75.84243393804533 H 0.0 **** 0.06
18155 H 61.925910582395375 6.810518082403576 76.81100631548927 H 0.0 **** 0.06
18156 C 117.95191161650561 77.28505498010998 37.103789131083886 C 0.0 **** -0.24
18157 H 118.16808514148931 77.67560041504558 38.09825904335318 H 0.0 **** 0.06
18158 H 116.98317811880564 76.78571438118826 37.113089292593145 H 0.0 **** 0.06
18159 H 118.72582767560807 76.57234396710561 36.81732076868141 H 0.0 **** 0.06
18160 H 117.93083524026228 78.10689446303422 36.38738782242501 H 0.0 **** 0.06
18161 C 58.12953910881857 30.532242559083045 27.3356353245498 C 0.0 **** -0.24
18162 H 58.71803630968777 30.699797881773208 26.432760211275735 H 0.0 **** 0.06
18163 H 58.61787230201386 29.775991423188117 27.951651670838743 H 0.0 **** 0.06
18164 H 57.13286516625619 30.189162174261128 27.06067177960054 H 0.0 **** 0.06
18165 H 58.051808959933304 31.463994159066203 27.8960040561295 H 0.0 **** 0.06
18166 C 85.52744243511108 42.78650834622965 49.76693104250714 C 0.0 **** -0.24
18167 H 85.66312645662421 43.6878358235399 50.36504288688087 H 0.0 **** 0.06
18168 H 84.64349189137349 42.897569530814735 49.1385426236636 H 0.0 **** 0.06
18169 H 85.39971277612472 41.92914663021537 50.42700080709446 H 0.0 **** 0.06
18170 H 86.40451324278459 42.63336208447703 49.13769326528913 H 0.0 **** 0.06
18171 C 50.35258165088235 109.03286752931658 67.8425104263275 C 0.0 **** -0.24
18172 H 49.75493204249293 108.85285377754349 68.73578647108667 H 0.0 **** 0.06
18173 H 50.709037478856345 108.08195701914747 67.44627869617821 H 0.0 **** 0.06
18174 H 51.205592977164656 109.6632979994163 68.0973208152435 H 0.0 **** 0.06
18175 H 49.742482621097594 109.53500489646274 67.0924848930126 H 0.0 **** 0.06
18176 C 21.689058637968827 42.84341950584232 74.480064326346 C 0.0 **** -0.24
18177 H 21.80721656052711 42.28716822005329 75.4094142518012 H 0.0 **** 0.06
18178 H 21.34449805859731 43.85393931646118 74.70161318355312 H 0.0 **** 0.06
18179 H 20.957734404359783 42.34108286058209 73.8464099076945 H 0.0 **** 0.06
18180 H 22.647173290706633 42.89120594284995 73.96148939622992 H 0.0 **** 0.06
18181 C 4.462297182497423 90.16075074973398 121.27678003940082 C 0.0 **** -0.24
18182 H 4.032515972872488 89.52429784468308 120.50359965150813 H 0.0 **** 0.06
18183 H 4.439669041259833 91.19929081669727 120.94782627314981 H 0.0 **** 0.06
18184 H 5.494139297222773 89.8597780697288 121.46184625693252 H 0.0 **** 0.06
18185 H 3.883213961348531 90.05692191680282 122.19507704857955 H 0.0 **** 0.06
18186 C 25.906237773502724 95.50386252910778 0.629264749721699 C 0.0 **** -0.24
18187 H 25.844208248669077 94.6167013635665 -0.00041572038487913687 H 0.0 **** 0.06
18188 H 26.245125845818166 95.21889775641733 1.6257044762624844 H 0.0 **** 0.06
18189 H 24.922689357523993 95.96911409575614 0.6982694547317863 H 0.0 **** 0.06
18190 H 26.612184210261674 96.20998365230878 0.19256268516443242 H 0.0 **** 0.06
18191 C 20.139297316651096 69.59341382485243 110.86668372489135 C 0.0 **** -0.24
18192 H 19.564053489302097 70.50315936278275 111.03753074349333 H 0.0 **** 0.06
18193 H 19.461463108445912 68.74440086185382 110.78366052119921 H 0.0 **** 0.06
18194 H 20.822577174095585 69.43360139127327 111.70079328259891 H 0.0 **** 0.06
18195 H 20.711221218310186 69.69389903639268 109.94352286380632 H 0.0 **** 0.06
18196 C 81.19335945459147 22.649766538763544 54.95517322088716 C 0.0 **** -0.24
18197 H 81.72248302653884 22.159526212434002 55.77299034866439 H 0.0 **** 0.06
18198 H 81.7441108132968 23.539261887749262 54.649066864786704 H 0.0 **** 0.06
18199 H 80.19571081736981 22.93570351928804 55.28832989028044 H 0.0 **** 0.06
18200 H 81.11226222592131 21.96336876763195 54.111812967505216 H 0.0 **** 0.06
18201 C 19.54655033794767 22.784766664557708 15.549036527705802 C 0.0 **** -0.24
18202 H 19.485402929765776 23.83484240149889 15.26131768878722 H 0.0 **** 0.06
18203 H 19.950023912120724 22.204890459491622 14.719301776277796 H 0.0 **** 0.06
18204 H 18.55108627466163 22.418636450836914 15.799112642153997 H 0.0 **** 0.06
18205 H 20.199559611707365 22.683614728825802 16.41572637234369 H 0.0 **** 0.06
18206 C 37.919372541063495 1.8030774243576193 92.74312671920165 C 0.0 **** -0.24
18207 H 37.546526177998146 2.82716775989617 92.7834228170768 H 0.0 **** 0.06
18208 H 38.08584107066267 1.5173648000566207 91.70378667097847 H 0.0 **** 0.06
18209 H 37.18591892826342 1.132678910996301 93.1914366289461 H 0.0 **** 0.06
18210 H 38.85728292701282 1.7362260684425266 93.29405512565012 H 0.0 **** 0.06
18211 C 83.53798677791494 21.62669947743025 72.25104548104375 C 0.0 **** -0.24
18212 H 84.42314008384216 22.116310177265603 71.84549019038255 H 0.0 **** 0.06
18213 H 83.02201587514969 21.08888503413621 71.45540812405113 H 0.0 **** 0.06
18214 H 82.87078029827873 22.377687708805425 72.67556920174664 H 0.0 **** 0.06
18215 H 83.83631550984643 20.92460169816559 73.03044132229081 H 0.0 **** 0.06
18216 C 33.08210693350739 46.17340993935983 18.037156869141953 C 0.0 **** -0.24
18217 H 32.40845410911405 45.377068945613814 17.719698117691493 H 0.0 **** 0.06
18218 H 33.91556918140029 46.243599697527884 17.338350602759192 H 0.0 **** 0.06
18219 H 33.46147094082714 45.95045607429604 19.03403480225667 H 0.0 **** 0.06
18220 H 32.54143660060446 47.11996332637489 18.057042494415043 H 0.0 **** 0.06
18221 C 37.95835298945602 106.35607416951123 50.43192947295117 C 0.0 **** -0.24
18222 H 37.82498130463716 107.14071412092244 51.177259814128206 H 0.0 **** 0.06
18223 H 38.99431658572399 106.35069464904734 50.09298608720448 H 0.0 **** 0.06
18224 H 37.29914901145776 106.54512532551368 49.584350605185676 H 0.0 **** 0.06
18225 H 37.714893370535435 105.39002347892793 50.87406135485401 H 0.0 **** 0.06
18226 C 11.286616596018774 100.55007456598412 60.068241466383235 C 0.0 **** -0.24
18227 H 11.894766216646591 101.39987853716718 60.378865677849994 H 0.0 **** 0.06
18228 H 11.93196580586271 99.76644044096611 59.67283911723204 H 0.0 **** 0.06
18229 H 10.586762783303811 100.86897726767836 59.2962124484339 H 0.0 **** 0.06
18230 H 10.732496101325335 100.16737833502674 60.92540551645448 H 0.0 **** 0.06
18231 C 111.50270848817053 14.457192460865514 66.55196297490272 C 0.0 **** -0.24
18232 H 111.12904876896198 14.689792404671906 67.5491910402277 H 0.0 **** 0.06
18233 H 110.66216026780594 14.278766653271546 65.88111719112271 H 0.0 **** 0.06
18234 H 112.1276456395419 13.56430663645314 66.59733573986159 H 0.0 **** 0.06
18235 H 112.09361460869354 15.294575698004337 66.18095705074563 H 0.0 **** 0.06
18236 C 25.93335678656922 90.68459329276283 120.55412001755532 C 0.0 **** -0.24
18237 H 26.753715470917257 90.0419108544707 120.23248183833486 H 0.0 **** 0.06
18238 H 25.01054808344992 90.36544804356544 120.06955676714718 H 0.0 **** 0.06
18239 H 26.150706700884427 91.71639000000559 120.27998385209953 H 0.0 **** 0.06
18240 H 25.81942387710029 90.61215326391078 121.63585745296201 H 0.0 **** 0.06
18241 C 57.40430475223911 13.052215169384858 85.4746282273577 C 0.0 **** -0.24
18242 H 58.45584067134425 12.99115422042674 85.75383399742788 H 0.0 **** 0.06
18243 H 56.9013878869319 12.125095724594537 85.7484059718501 H 0.0 **** 0.06
18244 H 57.322741909950565 13.205420780998192 84.3982826961269 H 0.0 **** 0.06
18245 H 56.93783493369696 13.887486278946177 85.99723632824345 H 0.0 **** 0.06
18246 C 12.177493166521572 59.63144249614595 67.07032041412165 C 0.0 **** -0.24
18247 H 11.307174258995076 59.81316456982637 67.70103447456401 H 0.0 **** 0.06
18248 H 12.080312306982933 60.1994993004696 66.14458420257455 H 0.0 **** 0.06
18249 H 12.242287202057526 58.56805422799903 66.83931334188264 H 0.0 **** 0.06
18250 H 13.078586078815022 59.94447380191701 67.59609507989171 H 0.0 **** 0.06
18251 C 71.60575592886724 1.0423528966244504 30.96923853370231 C 0.0 **** -0.24
18252 H 71.58012856250247 2.1094678810547407 30.749075040138166 H 0.0 **** 0.06
18253 H 71.45476332717331 0.889122374564721 32.03839373341975 H 0.0 **** 0.06
18254 H 72.57314069713877 0.6343096419170564 30.675417886478613 H 0.0 **** 0.06
18255 H 70.81452329964458 0.5376485519172434 30.41336833961998 H 0.0 **** 0.06
18256 C 7.184904057142738 111.50664374116141 26.95545829398028 C 0.0 **** -0.24
18257 H 7.3064915871417035 112.50856943691845 26.543865657051832 H 0.0 **** 0.06
18258 H 6.570599869878553 110.91016641646968 26.280638821898776 H 0.0 **** 0.06
18259 H 6.699354527544969 111.57066725010077 27.929479751671657 H 0.0 **** 0.06
18260 H 8.162852715130857 111.03990951850503 27.0666636568863 H 0.0 **** 0.06
18261 C 53.11439237183606 77.39181090326065 117.76927044047514 C 0.0 **** -0.24
18262 H 53.97490603996769 77.0635558229711 118.35157612868326 H 0.0 **** 0.06
18263 H 53.4463259834767 77.73122259701867 116.78840609011533 H 0.0 **** 0.06
18264 H 52.6148237721647 78.21041053456182 118.28796883209607 H 0.0 **** 0.06
18265 H 52.41907708637828 76.56064542362216 117.64940902148098 H 0.0 **** 0.06
18266 C 64.29633129482315 77.13168768297791 39.26833248199935 C 0.0 **** -0.24
18267 H 63.521929490482755 77.20846242261959 40.03175479685021 H 0.0 **** 0.06
18268 H 64.56966833753222 76.08502229203376 39.13396150549235 H 0.0 **** 0.06
18269 H 65.17249482814108 77.69926820248531 39.58120613619005 H 0.0 **** 0.06
18270 H 63.91976488366908 77.53285355286201 38.327140238892156 H 0.0 **** 0.06
18271 C 42.56728749088067 29.35298209889079 107.50985774177704 C 0.0 **** -0.24
18272 H 42.760343284081586 29.146530028853164 108.56309807244938 H 0.0 **** 0.06
18273 H 41.79181142194771 30.114720846496596 107.42586900897055 H 0.0 **** 0.06
18274 H 42.23491336863174 28.439080313327437 107.01667101856788 H 0.0 **** 0.06
18275 H 43.48141888959569 29.71022573317987 107.03706092701279 H 0.0 **** 0.06
18276 C 87.19885844257271 13.016907031943216 115.5634315853357 C 0.0 **** -0.24
18277 H 87.91473558200954 13.382923035456773 114.82815321714352 H 0.0 **** 0.06
18278 H 87.66922748063348 12.98740597063896 116.54602903974492 H 0.0 **** 0.06
18279 H 86.87321320054184 12.014252707856699 115.28552937411712 H 0.0 **** 0.06
18280 H 86.336024776675 13.682727920537058 115.59305877580607 H 0.0 **** 0.06
18281 C 52.77674874931037 27.536655646878103 89.5686006356297 C 0.0 **** -0.24
18282 H 52.12593069044789 27.858421836301602 88.75576948129907 H 0.0 **** 0.06
18283 H 52.94120462969036 28.36886012673716 90.25305450213867 H 0.0 **** 0.06
18284 H 53.73264153824496 27.207376689791204 89.16043460331704 H 0.0 **** 0.06
18285 H 52.30731476995223 26.711466757159542 90.10428167239647 H 0.0 **** 0.06
18286 C 25.841652720286604 50.80443383727297 34.53390644880882 C 0.0 **** -0.24
18287 H 24.914591993746598 51.35977506480623 34.38943951975567 H 0.0 **** 0.06
18288 H 26.68729827330621 51.48964828892687 34.47185079329229 H 0.0 **** 0.06
18289 H 25.933370806759967 50.04266324497155 33.76048520602285 H 0.0 **** 0.06
18290 H 25.83056980655371 50.32788074152597 35.514490704393054 H 0.0 **** 0.06
18291 C 88.743803816163 84.13212910842682 65.99168857092369 C 0.0 **** -0.24
18292 H 88.56830650996218 83.09080102745682 65.72297196970567 H 0.0 **** 0.06
18293 H 89.81506834889686 84.30059396917216 66.10831233983558 H 0.0 **** 0.06
18294 H 88.23600502960778 84.35618654478597 66.92941280914434 H 0.0 **** 0.06
18295 H 88.3574847046487 84.78011730538944 65.20478769835415 H 0.0 **** 0.06
18296 C 109.1398982395367 95.38855531473513 113.20580686264498 C 0.0 **** -0.24
18297 H 109.31724529009148 94.5937302633865 113.93113186353568 H 0.0 **** 0.06
18298 H 109.82305577376133 96.21579713643314 113.4008374624252 H 0.0 **** 0.06
18299 H 108.11047754020024 95.73720536962503 113.29351854771382 H 0.0 **** 0.06
18300 H 109.3092765104359 95.00619774131209 112.1991958060399 H 0.0 **** 0.06
18301 C 108.80547057818973 69.66048374099148 82.89106463378528 C 0.0 **** -0.24
18302 H 108.99672278443978 69.02458942275408 82.02660460239798 H 0.0 **** 0.06
18303 H 108.7949657456848 69.05131281940734 83.79490896090974 H 0.0 **** 0.06
18304 H 107.8406436045259 70.15379056160074 82.77347884001006 H 0.0 **** 0.06
18305 H 109.59089308699379 70.41261192741922 82.96951103845169 H 0.0 **** 0.06
18306 C 45.27350113471729 44.244806215282104 98.53592787382013 C 0.0 **** -0.24
18307 H 44.98561712500265 43.58604064064871 99.3553049852568 H 0.0 **** 0.06
18308 H 44.3785712301725 44.61580421545559 98.03701801960705 H 0.0 **** 0.06
18309 H 45.88555463545384 43.691882981492924 97.82338977964696 H 0.0 **** 0.06
18310 H 45.84474400010174 45.08536792743212 98.93039681593308 H 0.0 **** 0.06
18311 C 38.59958277145523 56.15129927629465 58.615232638934025 C 0.0 **** -0.24
18312 H 38.39658953179912 55.19336776124524 58.13642778752662 H 0.0 **** 0.06
18313 H 38.4747589925764 56.052037634787865 59.69391068577038 H 0.0 **** 0.06
18314 H 37.90386538185393 56.90111133983231 58.236832868802104 H 0.0 **** 0.06
18315 H 39.621218157170574 56.45911171210378 58.39421515211156 H 0.0 **** 0.06
18316 C 18.877869900243297 51.516149453741974 43.43188305344036 C 0.0 **** -0.24
18317 H 18.834064493643837 51.855512555019175 44.46711488221071 H 0.0 **** 0.06
18318 H 19.90259106671317 51.24057009484268 43.182354125364185 H 0.0 **** 0.06
18319 H 18.545983128714795 52.318446783297134 42.77281757849542 H 0.0 **** 0.06
18320 H 18.22684380150082 50.65076041703956 43.306483759858 H 0.0 **** 0.06
18321 C 94.02369190710618 53.25358221430898 56.61634904250229 C 0.0 **** -0.24
18322 H 94.83132683980736 53.88220626415867 56.992129269769976 H 0.0 **** 0.06
18323 H 93.07814420923802 53.78948700507951 56.698249760425824 H 0.0 **** 0.06
18324 H 93.97455232408299 52.33702192326146 57.20448991026797 H 0.0 **** 0.06
18325 H 94.21224171680936 53.00482289598105 55.571987562420475 H 0.0 **** 0.06
18326 C 82.58302665386435 33.761013005532334 122.05434916562587 C 0.0 **** -0.24
18327 H 83.17422512016404 32.97828688390271 122.5279821798024 H 0.0 **** 0.06
18328 H 82.20419560716874 34.442258876042615 122.81785644617287 H 0.0 **** 0.06
18329 H 81.74565705798543 33.31181692225903 121.52011496347677 H 0.0 **** 0.06
18330 H 83.20738085185081 34.31349814548793 121.35258702448562 H 0.0 **** 0.06
18331 C 52.69253753484827 84.74769916578049 112.98319557274684 C 0.0 **** -0.24
18332 H 53.40125029075588 84.34355966819862 112.26100614276464 H 0.0 **** 0.06
18333 H 52.167363304525196 83.92784526310052 113.47420757723273 H 0.0 **** 0.06
18334 H 51.97191831307126 85.38498543926795 112.46942388857155 H 0.0 **** 0.06
18335 H 53.22891864477634 85.33453042942915 113.72936749901135 H 0.0 **** 0.06
18336 C 7.212025760379618 46.78034631738416 24.020178889550323 C 0.0 **** -0.24
18337 H 7.948145019031017 47.2457655638072 24.67620749669838 H 0.0 **** 0.06
18338 H 7.712414345448792 46.07734264700446 23.354494120112022 H 0.0 **** 0.06
18339 H 6.715931673232859 47.55067600457164 23.429410760477708 H 0.0 **** 0.06
18340 H 6.47374123695127 46.250824289449554 24.622044731017183 H 0.0 **** 0.06
18341 C 0.5409314613563545 69.32908241138165 69.9296379937528 C 0.0 **** -0.24
18342 H -0.5247666028272207 69.0987287725304 69.94563855241182 H 0.0 **** 0.06
18343 H 0.7864566508892512 69.96809355121553 70.77762458040652 H 0.0 **** 0.06
18344 H 0.7873395992836372 69.84474652148057 69.00165325982093 H 0.0 **** 0.06
18345 H 1.1127808686380654 68.40370046468263 69.99318008284328 H 0.0 **** 0.06
18346 C 68.38454518110217 25.254134010042435 52.38542566256956 C 0.0 **** -0.24
18347 H 68.62372163113014 25.70002248089404 51.41946796072824 H 0.0 **** 0.06
18348 H 68.03050478659623 26.03000235610987 53.065063728150335 H 0.0 **** 0.06
18349 H 69.27783932175498 24.787401519199676 52.79988610812248 H 0.0 **** 0.06
18350 H 67.60753584406706 24.50186638826117 52.25519140635663 H 0.0 **** 0.06
18351 C 26.57887862535395 40.05452271357359 90.16203448596514 C 0.0 **** -0.24
18352 H 27.09731243631566 39.646710009187245 91.02961808038532 H 0.0 **** 0.06
18353 H 25.9653387400987 39.276970517277164 89.7067724401513 H 0.0 **** 0.06
18354 H 27.30985242318073 40.41243075980867 89.4372350329302 H 0.0 **** 0.06
18355 H 25.942923987641024 40.88231619820493 90.47672132777558 H 0.0 **** 0.06
18356 C 2.8854877649175563 121.01446622027888 56.09553152409782 C 0.0 **** -0.24
18357 H 2.893238268291256 119.93224182333692 56.23127577698412 H 0.0 **** 0.06
18358 H 2.2646212750347843 121.26797340389578 55.23622189329308 H 0.0 **** 0.06
18359 H 3.9036780375148226 121.36608194242064 55.92510513667901 H 0.0 **** 0.06
18360 H 2.481259952434371 121.48954204844013 56.989098495282065 H 0.0 **** 0.06
18361 C 91.85025613016245 86.08775549308754 25.34535106506877 C 0.0 **** -0.24
18362 H 91.30267361363116 86.4986985527031 26.19367726047352 H 0.0 **** 0.06
18363 H 92.57862186744075 85.35852321680147 25.701126010709274 H 0.0 **** 0.06
18364 H 92.36822664032434 86.89294175885286 24.823040017049834 H 0.0 **** 0.06
18365 H 91.15215809445925 85.60240602222393 24.663979579741408 H 0.0 **** 0.06
18366 C 66.53489926444388 95.32541595808863 2.4641405039371875 C 0.0 **** -0.24
18367 H 65.47037875946575 95.56060681090895 2.493270501324176 H 0.0 **** 0.06
18368 H 67.11168278899268 96.24038180775017 2.6007802188364764 H 0.0 **** 0.06
18369 H 66.7821104002457 94.88003096993714 1.5001430801527817 H 0.0 **** 0.06
18370 H 66.7731635870185 94.62225378179937 3.2618247537562013 H 0.0 **** 0.06
18371 C 19.999728806594163 54.005245896876175 38.099566688127254 C 0.0 **** -0.24
18372 H 20.378461659754635 53.65531320237977 37.13909561582568 H 0.0 **** 0.06
18373 H 20.669564945651217 53.678420532991396 38.89492626522559 H 0.0 **** 0.06
18374 H 19.00503363513876 53.59455035669848 38.26960420468373 H 0.0 **** 0.06
18375 H 19.946853235790883 55.09446438842062 38.0936978369478 H 0.0 **** 0.06
18376 C 68.22084691766875 17.481373839060836 112.4108632837001 C 0.0 **** -0.24
18377 H 67.20422160358214 17.783870033204465 112.6608555243491 H 0.0 **** 0.06
18378 H 68.71510172742666 18.28451715920761 111.86472677049964 H 0.0 **** 0.06
18379 H 68.19098599551634 16.58427192792081 111.79188214062519 H 0.0 **** 0.06
18380 H 68.77285743353914 17.2719513246046 113.32746121332288 H 0.0 **** 0.06
18381 C 3.491883272820999 29.930319165019455 75.69568415449712 C 0.0 **** -0.24
18382 H 3.9357698242287995 30.544129644712626 74.91111189958355 H 0.0 **** 0.06
18383 H 2.4212244719660845 29.8331935201945 75.51692328646078 H 0.0 **** 0.06
18384 H 3.658238993483252 30.403342195201617 76.66340834341415 H 0.0 **** 0.06
18385 H 3.9533039917050417 28.942993391870488 75.68921514418383 H 0.0 **** 0.06
18386 C 2.6087724665002554 29.41633003133518 12.030416322974329 C 0.0 **** -0.24
18387 H 1.8058629637242518 28.709722405683067 11.819387546550427 H 0.0 **** 0.06
18388 H 3.3520903333990475 28.941263112971 12.670248388994889 H 0.0 **** 0.06
18389 H 2.1986048928915096 30.291256720598994 12.535734077971831 H 0.0 **** 0.06
18390 H 3.0754307457214907 29.723777279335195 11.094918416539649 H 0.0 **** 0.06
18391 C 69.16356841139395 51.352363035072415 83.60527977912375 C 0.0 **** -0.24
18392 H 68.60751590187044 50.8997522239988 82.78362215637935 H 0.0 **** 0.06
18393 H 68.94926851822169 52.420920980474136 83.6423561677617 H 0.0 **** 0.06
18394 H 70.23074977619683 51.19992941212121 83.4497871636903 H 0.0 **** 0.06
18395 H 68.86301860294611 50.888750172808614 84.54497125295245 H 0.0 **** 0.06
18396 C 80.59756300203145 104.47634584198477 56.47818066698108 C 0.0 **** -0.24
18397 H 79.88422636100105 103.65574407438572 56.39879093839058 H 0.0 **** 0.06
18398 H 80.62123737638024 104.83844980412226 57.50667736152571 H 0.0 **** 0.06
18399 H 80.29569612019421 105.28580296578136 55.814213326583435 H 0.0 **** 0.06
18400 H 81.58873931212213 104.12396045868343 56.19395865285805 H 0.0 **** 0.06
18401 C 26.855088885707346 70.92024895380277 44.77448322287637 C 0.0 **** -0.24
18402 H 27.926785631718502 70.7195348479957 44.755691707817775 H 0.0 **** 0.06
18403 H 26.644789489005916 71.82347650118817 44.20190285391709 H 0.0 **** 0.06
18404 H 26.52927012168567 71.05851807289756 45.804766600458194 H 0.0 **** 0.06
18405 H 26.32081146791657 70.07819701580266 44.333929785853826 H 0.0 **** 0.06
18406 C 99.23599416266575 40.95843422269897 56.93506942836745 C 0.0 **** -0.24
18407 H 99.88962464406802 41.656046969169154 56.41232405406134 H 0.0 **** 0.06
18408 H 99.47985905866335 39.93899960693935 56.63583187292026 H 0.0 **** 0.06
18409 H 98.19805250534682 41.17406326287218 56.681066721363614 H 0.0 **** 0.06
18410 H 99.37620050850512 41.065776929681704 58.01026745871629 H 0.0 **** 0.06
18411 C 73.77455877125237 62.590422151714534 58.91212872898703 C 0.0 **** -0.24
18412 H 73.88182743112694 62.54498258895043 59.99559389896672 H 0.0 **** 0.06
18413 H 74.3107546433298 61.7560653131504 58.45886187843473 H 0.0 **** 0.06
18414 H 74.18649418642804 63.52967823327771 58.54529052917076 H 0.0 **** 0.06
18415 H 72.71804458631772 62.52935066446318 58.64984602784773 H 0.0 **** 0.06
18416 C 100.88925576107877 17.582263955591372 85.098554569734 C 0.0 **** -0.24
18417 H 100.95363920733405 17.937990485394835 86.1264760126499 H 0.0 **** 0.06
18418 H 100.73388692818199 16.503691682516774 85.09669152283834 H 0.0 **** 0.06
18419 H 101.81595740312574 17.817861037291323 84.5747194398719 H 0.0 **** 0.06
18420 H 100.05462267798262 18.071702094771126 84.5965136755166 H 0.0 **** 0.06
18421 C 34.18362319412279 64.12732964755762 120.80960926374868 C 0.0 **** -0.24
18422 H 33.130334959554034 63.851663792292065 120.7677248043332 H 0.0 **** 0.06
18423 H 34.7978606532692 63.24072966874828 120.65223089425623 H 0.0 **** 0.06
18424 H 34.40805537334944 64.5566333194358 121.78677084816042 H 0.0 **** 0.06
18425 H 34.39912257087832 64.86078854621528 120.03269923966397 H 0.0 **** 0.06
18426 C 104.42705809071458 92.74066260692206 114.69265631603439 C 0.0 **** -0.24
18427 H 104.32601872976906 92.14168423411053 113.7880480909409 H 0.0 **** 0.06
18428 H 103.64307999412719 93.49824867289061 114.71718965492613 H 0.0 **** 0.06
18429 H 105.40290483681136 93.22780701595724 114.69810298987872 H 0.0 **** 0.06
18430 H 104.33776938752288 92.09645109944012 115.56678109720092 H 0.0 **** 0.06
18431 C 84.06728245799007 16.11458320510522 109.20942172403886 C 0.0 **** -0.24
18432 H 83.60280716998324 16.845954652920398 109.87295378648213 H 0.0 **** 0.06
18433 H 83.6688208741096 15.123346177551497 109.4266604716666 H 0.0 **** 0.06
18434 H 85.1459979974502 16.11604054760204 109.36652615369673 H 0.0 **** 0.06
18435 H 83.85025010376393 16.375193505334977 108.17390865625958 H 0.0 **** 0.06
18436 C 28.815621384383746 61.10225836379144 112.2884218066234 C 0.0 **** -0.24
18437 H 29.10545681800386 61.42601155578348 113.28846303866467 H 0.0 **** 0.06
18438 H 29.704064185341906 60.79550075080902 111.73526418131578 H 0.0 **** 0.06
18439 H 28.328356491363706 61.92538479672749 111.7673240809001 H 0.0 **** 0.06
18440 H 28.126388169183542 60.26074283108182 112.36460817077871 H 0.0 **** 0.06
18441 C 31.707089886726123 106.16636770382121 10.303074767035138 C 0.0 **** -0.24
18442 H 32.51746539656392 106.78914138177342 9.92345964690065 H 0.0 **** 0.06
18443 H 32.12563121670394 105.2749469353434 10.772837931165352 H 0.0 **** 0.06
18444 H 31.057328538945256 105.87305943023344 9.479463517374363 H 0.0 **** 0.06
18445 H 31.131315140465972 106.72822517350434 11.038138520720498 H 0.0 **** 0.06
18446 C 38.260813452054016 74.55758027042802 36.38899308649546 C 0.0 **** -0.24
18447 H 39.15305961146343 74.50002429223784 35.76652448355543 H 0.0 **** 0.06
18448 H 37.46947277709668 73.9515975481338 35.947385766554106 H 0.0 **** 0.06
18449 H 37.93048206257179 75.59445131295521 36.45624469670628 H 0.0 **** 0.06
18450 H 38.49012616216688 74.18403981467159 37.38753322042126 H 0.0 **** 0.06
18451 C 58.59141903735139 79.28549165689734 45.6254748091402 C 0.0 **** -0.24
18452 H 59.22534682712121 78.8068607433095 46.3716699015436 H 0.0 **** 0.06
18453 H 59.01565403671753 80.25327396166944 45.35602673438245 H 0.0 **** 0.06
18454 H 57.59186988255866 79.4282457796266 46.03629701527086 H 0.0 **** 0.06
18455 H 58.53286094483335 78.65357910211094 44.73931872967961 H 0.0 **** 0.06
18456 C 66.59520462473299 64.10336877726806 2.00761795050218 C 0.0 **** -0.24
18457 H 67.37363752171188 64.85721045136549 1.8952257103083525 H 0.0 **** 0.06
18458 H 66.53219910802983 63.507821442931544 1.0963277322607894 H 0.0 **** 0.06
18459 H 65.6385926625967 64.5936018171056 2.1880652939372567 H 0.0 **** 0.06
18460 H 66.8353897104536 63.45483416958194 2.849852532371841 H 0.0 **** 0.06
18461 C 116.78051791958109 83.65514089939856 109.31131660494893 C 0.0 **** -0.24
18462 H 117.00096795521372 82.62207129944969 109.57789688446383 H 0.0 **** 0.06
18463 H 115.7047341336993 83.77362014353957 109.17596472644891 H 0.0 **** 0.06
18464 H 117.29323235832842 83.90746654516389 108.38296978563926 H 0.0 **** 0.06
18465 H 117.12284570103296 84.31682037990237 110.10718097861016 H 0.0 **** 0.06
18466 C 103.98003571437815 68.15247478182832 13.077361455142949 C 0.0 **** -0.24
18467 H 104.7130716709191 67.4149096895924 13.40588575464298 H 0.0 **** 0.06
18468 H 104.40344845198811 69.15273167331753 13.172875742112694 H 0.0 **** 0.06
18469 H 103.08578547080427 68.07503244706717 13.69710205248279 H 0.0 **** 0.06
18470 H 103.71758088164654 67.96501593149395 12.036591201652527 H 0.0 **** 0.06
18471 C 74.98237960250302 5.14556180509301 54.13216313200212 C 0.0 **** -0.24
18472 H 75.75803649196888 4.491309333542773 53.73268561383151 H 0.0 **** 0.06
18473 H 74.14835971837863 4.54138783177649 54.49057884905011 H 0.0 **** 0.06
18474 H 74.63495865587282 5.816976293487841 53.347538160506645 H 0.0 **** 0.06
18475 H 75.38932281101475 5.729807010229962 54.95684903340893 H 0.0 **** 0.06
18476 C 89.32594158934967 84.45851646766528 101.45278639012949 C 0.0 **** -0.24
18477 H 88.72204461405101 85.0164168206145 100.73695415917828 H 0.0 **** 0.06
18478 H 90.38213678291908 84.65344013059357 101.26843733028764 H 0.0 **** 0.06
18479 H 89.12753214310652 83.39281190321165 101.34143753275742 H 0.0 **** 0.06
18480 H 89.0697231041172 84.771667765192 102.46502326693027 H 0.0 **** 0.06
18481 C 42.226763627572836 88.07063431907346 31.10242380687184 C 0.0 **** -0.24
18482 H 43.00853793117449 88.02433509563244 30.34442022039817 H 0.0 **** 0.06
18483 H 41.31289057326154 87.62481564635925 30.71035001910802 H 0.0 **** 0.06
18484 H 42.03915414973386 89.1111850193011 31.368132440130104 H 0.0 **** 0.06
18485 H 42.54748093638278 87.52115978647353 31.98849455754945 H 0.0 **** 0.06
18486 C 10.280317373712279 112.01255434491935 3.437257987306168 C 0.0 **** -0.24
18487 H 10.719022418366052 112.238948427612 4.409325763606546 H 0.0 **** 0.06
18488 H 10.254368959341633 110.93242865152004 3.2934272136272966 H 0.0 **** 0.06
18489 H 10.880962253109402 112.47042223792778 2.6518728569924974 H 0.0 **** 0.06
18490 H 9.265685049161462 112.40998435067948 3.3968622080517434 H 0.0 **** 0.06
18491 C 75.81600435577471 15.64332378161103 103.97606279813968 C 0.0 **** -0.24
18492 H 76.41348916544342 14.894588844672853 104.49673549606831 H 0.0 **** 0.06
18493 H 75.79185708035828 16.561974761993696 104.56295670803374 H 0.0 **** 0.06
18494 H 74.80104960344491 15.270155303064541 103.84224493114573 H 0.0 **** 0.06
18495 H 76.25965020620984 15.847707684208217 103.00153639026072 H 0.0 **** 0.06
18496 C 60.77813737453155 51.98129193723007 93.61543019837927 C 0.0 **** -0.24
18497 H 61.04075250449881 51.09270717389248 94.18933134875624 H 0.0 **** 0.06
18498 H 61.03337974380466 52.87271376288214 94.18859562110089 H 0.0 **** 0.06
18499 H 59.70829901151416 51.975926284931035 93.40726870955248 H 0.0 **** 0.06
18500 H 61.33206731482244 51.98250296850304 92.67584285773404 H 0.0 **** 0.06
18501 C 76.16048914692976 25.564306540115922 57.16587034910619 C 0.0 **** -0.24
18502 H 75.991726666852 25.07740661133164 56.2063998157707 H 0.0 **** 0.06
18503 H 76.35307056546941 26.625620601087974 57.00477390571658 H 0.0 **** 0.06
18504 H 77.02031994988926 25.109275747886983 57.65816511008388 H 0.0 **** 0.06
18505 H 75.27774356087065 25.446382173471818 57.794375087830936 H 0.0 **** 0.06
18506 C 120.69711392685036 41.32791617070913 16.639068554960048 C 0.0 **** -0.24
18507 H 120.04380329578669 40.49341629345358 16.382517673906847 H 0.0 **** 0.06
18508 H 121.43627212452964 41.46665585782736 15.84913902008789 H 0.0 **** 0.06
18509 H 121.2063654021346 41.1138017687048 17.57911223973983 H 0.0 **** 0.06
18510 H 120.10318330157119 42.23521640998919 16.745594478294137 H 0.0 **** 0.06
18511 C 48.4441052976273 16.268171708113698 74.19636012934467 C 0.0 **** -0.24
18512 H 48.48058590623404 17.086219145156633 74.91424560909257 H 0.0 **** 0.06
18513 H 47.40983518614907 16.089455494497543 73.9007183971571 H 0.0 **** 0.06
18514 H 48.852340195809 15.366194837172486 74.6516502436437 H 0.0 **** 0.06
18515 H 49.032436267536866 16.529831811378813 73.31723513619914 H 0.0 **** 0.06
18516 C 68.04066852439979 112.02930601359198 111.82071275139495 C 0.0 **** -0.24
18517 H 67.9245248358558 111.09007670483354 112.3602421779168 H 0.0 **** 0.06
18518 H 67.56570423995132 111.94813991587974 110.84256083581982 H 0.0 **** 0.06
18519 H 69.10174867637843 112.24457165710862 111.69270973792419 H 0.0 **** 0.06
18520 H 67.57288663741562 112.83454287008763 112.38690072651147 H 0.0 **** 0.06
18521 C 28.59989829210933 35.6959442971021 86.37185800189673 C 0.0 **** -0.24
18522 H 27.72737622518497 35.25038649206246 85.89341924029685 H 0.0 **** 0.06
18523 H 28.3411148887253 36.004924675836435 87.38417285195251 H 0.0 **** 0.06
18524 H 28.924518511758684 36.563363503512306 85.79748204471909 H 0.0 **** 0.06
18525 H 29.405423211466484 34.96246212047427 86.41019392489704 H 0.0 **** 0.06
18526 C 98.15787349531485 71.30691316593175 70.16947069712995 C 0.0 **** -0.24
18527 H 97.3448284258152 70.83064771296745 69.62294441536622 H 0.0 **** 0.06
18528 H 98.96024721712627 70.58700620441596 70.32630636442548 H 0.0 **** 0.06
18529 H 97.79045789948748 71.65902078100751 71.13341112029025 H 0.0 **** 0.06
18530 H 98.5350502463022 72.15276637126854 69.59381607964085 H 0.0 **** 0.06
18531 C 106.78353950773854 87.16506059863715 57.04881984619115 C 0.0 **** -0.24
18532 H 107.22148570369217 87.73699113534991 57.86704153720689 H 0.0 **** 0.06
18533 H 105.74198659752304 86.94169802939012 57.2790215088676 H 0.0 **** 0.06
18534 H 107.33564947813665 86.2347384645951 56.91905319257495 H 0.0 **** 0.06
18535 H 106.83517495249365 87.74923913786827 56.1298414113341 H 0.0 **** 0.06
18536 C 44.39087363403164 80.45240684519342 75.44493517262302 C 0.0 **** -0.24
18537 H 44.43970799547587 81.3675129297296 76.03645548270501 H 0.0 **** 0.06
18538 H 43.76594295168865 80.62066106471917 74.56739068076996 H 0.0 **** 0.06
18539 H 43.96152180493984 79.65295039792244 76.04997038232108 H 0.0 **** 0.06
18540 H 45.39489271252322 80.17048622705875 75.1292446063124 H 0.0 **** 0.06
18541 C 86.011287263837 41.4648216593163 43.90971337808287 C 0.0 **** -0.24
18542 H 86.08815939496452 41.19598338965011 44.963012368211366 H 0.0 **** 0.06
18543 H 85.04836835974606 41.94241064835262 43.72549575095525 H 0.0 **** 0.06
18544 H 86.09304051538436 40.56498823231286 43.29815269755369 H 0.0 **** 0.06
18545 H 86.81507369705315 42.15382172279388 43.65155572371992 H 0.0 **** 0.06
18546 C 114.89020219388573 3.627777685703533 59.35294121332467 C 0.0 **** -0.24
18547 H 114.64906464492162 3.9932975160421833 58.35427954915383 H 0.0 **** 0.06
18548 H 115.5577760568006 2.769064688890424 59.27240963481941 H 0.0 **** 0.06
18549 H 113.97414589845036 3.3293386007105 59.861764415350336 H 0.0 **** 0.06
18550 H 115.38068479046194 4.418843408166445 59.92032202385394 H 0.0 **** 0.06
18551 C 94.85969484274287 2.5099665091473433 35.808740444074076 C 0.0 **** -0.24
18552 H 95.1951469605603 1.4801942212025594 35.92479623909492 H 0.0 **** 0.06
18553 H 93.7727205220283 2.549115224681289 35.884756057417775 H 0.0 **** 0.06
18554 H 95.1679104337872 2.884804754239921 34.832480952273244 H 0.0 **** 0.06
18555 H 95.3021525390134 3.127158992317451 36.59041859609562 H 0.0 **** 0.06
18556 C 64.21938451900758 119.19282477194744 109.73370455290785 C 0.0 **** -0.24
18557 H 64.47095918414448 118.13213131372169 109.71341312773848 H 0.0 **** 0.06
18558 H 63.2990584298135 119.35733298622227 109.17403230844366 H 0.0 **** 0.06
18559 H 65.02849459935885 119.76670605639487 109.28260340645829 H 0.0 **** 0.06
18560 H 64.07917593565423 119.51197405246305 110.76677592272142 H 0.0 **** 0.06
18561 C 27.568171391319424 118.23720087140012 121.40521734382077 C 0.0 **** -0.24
18562 H 27.85291986224638 118.24170400044585 122.45831053572775 H 0.0 **** 0.06
18563 H 27.331198430811128 117.21850972824697 121.09765382003923 H 0.0 **** 0.06
18564 H 28.39438363319016 118.6167734422919 120.80431044038006 H 0.0 **** 0.06
18565 H 26.69348164306382 118.87309844441535 121.2640390129232 H 0.0 **** 0.06
18566 C 109.35381383039527 37.458151124257256 86.62347719197317 C 0.0 **** -0.24
18567 H 108.91223422521381 37.80486668630573 85.68928669209006 H 0.0 **** 0.06
18568 H 108.73403658184691 36.66747395986653 87.04579565909299 H 0.0 **** 0.06
18569 H 109.41308048931012 38.28873053514826 87.32737311876241 H 0.0 **** 0.06
18570 H 110.35572003333516 37.073230169106125 86.43174825985065 H 0.0 **** 0.06
18571 C 61.18006258729989 90.84583454158107 69.91283800875124 C 0.0 **** -0.24
18572 H 60.87276870575756 90.89000045691876 68.86871833845709 H 0.0 **** 0.06
18573 H 60.36034845419265 90.4519962913327 70.51557628189514 H 0.0 **** 0.06
18574 H 61.43759007504082 91.84730494415018 70.25903998960703 H 0.0 **** 0.06
18575 H 62.04751758427242 90.19329109798593 70.00917586242684 H 0.0 **** 0.06
18576 C 8.96335724828404 71.2113768749428 46.216735767628506 C 0.0 **** -0.24
18577 H 8.412984090277178 70.35942078208859 45.81803373642214 H 0.0 **** 0.06
18578 H 8.988563079032588 71.15017753774589 47.305264362392336 H 0.0 **** 0.06
18579 H 8.470929333088407 72.1352345797608 45.915059189589385 H 0.0 **** 0.06
18580 H 9.982195639062127 71.19912062131095 45.82878566853134 H 0.0 **** 0.06
18581 C 57.44384580606751 113.7102106878133 13.68092870378905 C 0.0 **** -0.24
18582 H 58.27875661991492 114.39677763544933 13.54085055857172 H 0.0 **** 0.06
18583 H 56.96255870896173 113.91355156766306 14.63761169872646 H 0.0 **** 0.06
18584 H 57.812507275420295 112.68390021326755 13.670217550252858 H 0.0 **** 0.06
18585 H 56.723243897304165 113.84543622984211 12.874151107450473 H 0.0 **** 0.06
18586 C 86.96328083023903 26.105120317128524 73.39644158627817 C 0.0 **** -0.24
18587 H 87.83719352429577 25.665958865817913 72.91566416229298 H 0.0 **** 0.06
18588 H 86.10751046905492 26.041720623185583 72.72417251195063 H 0.0 **** 0.06
18589 H 87.16462846562212 27.150920433030905 73.63075000296553 H 0.0 **** 0.06
18590 H 86.74384009123415 25.563193150546994 74.31570584077974 H 0.0 **** 0.06
18591 C 95.26446973947151 53.55789273190489 27.05901684059259 C 0.0 **** -0.24
18592 H 94.71828193828861 52.83981953902981 26.446606067960175 H 0.0 **** 0.06
18593 H 96.29938782113805 53.233425246488714 27.163828580032998 H 0.0 **** 0.06
18594 H 94.80064924791327 53.62099479030564 28.043655271691733 H 0.0 **** 0.06
18595 H 95.23694592489989 54.53768945777765 26.580549461247273 H 0.0 **** 0.06
18596 C 101.70547398237468 46.70694531970197 74.92424104314688 C 0.0 **** -0.24
18597 H 100.6280746119586 46.86727213975925 74.95931261939472 H 0.0 **** 0.06
18598 H 101.92312593503476 45.83683405428158 74.30556981114955 H 0.0 **** 0.06
18599 H 102.08040622585253 46.53950450799643 75.93383378508207 H 0.0 **** 0.06
18600 H 102.18881847266661 47.58650507476297 74.49942596744467 H 0.0 **** 0.06
18601 C 37.76240824424238 78.12527578103698 101.65284283623475 C 0.0 **** -0.24
18602 H 37.287160424299515 78.05164368386258 100.67476924885943 H 0.0 **** 0.06
18603 H 37.65648356972176 79.14189305342956 102.03170880627579 H 0.0 **** 0.06
18604 H 38.81960089508976 77.87906818210166 101.56219761213856 H 0.0 **** 0.06
18605 H 37.28365031141416 77.4287599593903 102.3414971095134 H 0.0 **** 0.06
18606 C 2.0765297545610792 56.094643824049086 84.92370470566411 C 0.0 **** -0.24
18607 H 1.8854375678209578 56.686755859049356 84.02906555532232 H 0.0 **** 0.06
18608 H 2.937394480715909 55.44606299163607 84.7523976054967 H 0.0 **** 0.06
18609 H 1.2017984216368518 55.4854692550403 85.14967710398719 H 0.0 **** 0.06
18610 H 2.283531037574221 56.759081219212305 85.76184161176624 H 0.0 **** 0.06
18611 C 75.29484256847559 1.017482801856758 118.54311453558554 C 0.0 **** -0.24
18612 H 75.64317650166998 1.9902874359355138 118.89130670910787 H 0.0 **** 0.06
18613 H 74.73067775235802 0.5292242154328193 119.33825589919248 H 0.0 **** 0.06
18614 H 76.1509204919683 0.40071347209429575 118.27199419645531 H 0.0 **** 0.06
18615 H 74.65347806981333 1.1524102793019466 117.67156399583119 H 0.0 **** 0.06
18616 C 118.75722728240429 119.51787510285912 42.77960965061354 C 0.0 **** -0.24
18617 H 117.68988879318628 119.70997950865207 42.889862021202305 H 0.0 **** 0.06
18618 H 118.93231167182408 118.44169491375044 42.77131326879086 H 0.0 **** 0.06
18619 H 119.29571830826052 119.968456494356 43.6127116224842 H 0.0 **** 0.06
18620 H 119.108710600985 119.9509938379933 41.842638028953274 H 0.0 **** 0.06
18621 C 6.890232460975199 95.07488108024003 27.650927052232248 C 0.0 **** -0.24
18622 H 7.558742786643336 94.98752626905869 28.508052055752586 H 0.0 **** 0.06
18623 H 7.2162734691724495 94.39337826337527 26.865124081961795 H 0.0 **** 0.06
18624 H 6.9102214325029365 96.09817124252305 27.277118589581136 H 0.0 **** 0.06
18625 H 5.8746397149751886 94.81846245476666 27.955400517448766 H 0.0 **** 0.06
18626 C 39.17016974794413 63.62435585829908 80.8743659772934 C 0.0 **** -0.24
18627 H 39.40027326224984 62.74058197339886 80.27915153500695 H 0.0 **** 0.06
18628 H 39.963061663130816 63.786925068209285 81.60348099889134 H 0.0 **** 0.06
18629 H 38.222764781120475 63.47553639283308 81.39356130720279 H 0.0 **** 0.06
18630 H 39.093203417458085 64.49209345485207 80.21989922683676 H 0.0 **** 0.06
18631 C 59.67416535356566 58.69317953489252 8.604542032864515 C 0.0 **** -0.24
18632 H 59.95342552106316 58.11164123911993 9.483765644928326 H 0.0 **** 0.06
18633 H 59.23229273098027 58.032341203058934 7.857911276175571 H 0.0 **** 0.06
18634 H 60.55993498972882 59.17161644446554 8.189096137418943 H 0.0 **** 0.06
18635 H 58.94923632861538 59.45525511355953 8.889922181425021 H 0.0 **** 0.06
18636 C 51.94165766586718 83.71817357064702 3.5051185728129486 C 0.0 **** -0.24
18637 H 52.025733127550666 84.57727151014868 4.170494528024038 H 0.0 **** 0.06
18638 H 51.08856216470741 83.10890437716043 3.80426112276035 H 0.0 **** 0.06
18639 H 52.85339091099928 83.12285715399508 3.5646168412789407 H 0.0 **** 0.06
18640 H 51.80107519502218 84.06433315522241 2.481008102139512 H 0.0 **** 0.06
18641 C 105.03369097779617 96.46594195181058 78.29447471070725 C 0.0 **** -0.24
18642 H 104.28171215175615 97.06015590961007 77.77580938762392 H 0.0 **** 0.06
18643 H 105.98635414957883 96.54833424954776 77.76984569665248 H 0.0 **** 0.06
18644 H 104.72081099979914 95.42216480513471 78.3175074054555 H 0.0 **** 0.06
18645 H 105.14787999166683 96.83431903812448 79.31398014088586 H 0.0 **** 0.06
18646 C 54.162764459180295 120.85762718374805 58.464340076619465 C 0.0 **** -0.24
18647 H 53.49141150419425 121.69762459226621 58.64537804869889 H 0.0 **** 0.06
18648 H 54.229022587294594 120.24597306107194 59.36440243711266 H 0.0 **** 0.06
18649 H 55.152802134514076 121.23313751424931 58.20603500274399 H 0.0 **** 0.06
18650 H 53.776798610370406 120.25531845331224 57.642796647037216 H 0.0 **** 0.06
18651 C 85.35204993443625 85.07149796416823 100.09603016658332 C 0.0 **** -0.24
18652 H 85.77749112016278 85.75976862546653 99.36577444619991 H 0.0 **** 0.06
18653 H 84.58738129743838 85.58668066108814 100.67838732379766 H 0.0 **** 0.06
18654 H 86.13821734209648 84.7158949639605 100.76137097532012 H 0.0 **** 0.06
18655 H 84.90416456871216 84.22335260478908 99.57757832371612 H 0.0 **** 0.06
18656 C 5.477930051574191 115.95835980577046 120.12715431648812 C 0.0 **** -0.24
18657 H 4.46086625534744 115.78161369334188 120.47644381060962 H 0.0 **** 0.06
18658 H 6.088830132169505 115.07784390629698 120.32611403816728 H 0.0 **** 0.06
18659 H 5.897221150810491 116.81795818654086 120.64986811790132 H 0.0 **** 0.06
18660 H 5.463381633744543 116.15669400280072 119.05460029914158 H 0.0 **** 0.06
18661 C 18.36525886702526 65.1458743694848 108.68767491370741 C 0.0 **** -0.24
18662 H 17.935982189904394 66.0878497410107 108.34450712232024 H 0.0 **** 0.06
18663 H 17.77310662668674 64.75878388636295 109.51814461572076 H 0.0 **** 0.06
18664 H 19.38974130770208 65.31247349495777 109.01792708057818 H 0.0 **** 0.06
18665 H 18.35942219211114 64.42571494355704 107.86941366577591 H 0.0 **** 0.06
18666 C 116.38514625577724 74.20839075759369 71.4403491012809 C 0.0 **** -0.24
18667 H 115.49059242288405 74.29530246614107 72.05795414180861 H 0.0 **** 0.06
18668 H 116.30141313085147 73.32815944657963 70.80262051085336 H 0.0 **** 0.06
18669 H 117.26021042792797 74.11002617162188 72.0829152404389 H 0.0 **** 0.06
18670 H 116.48631094417465 75.09932395830725 70.82093983237115 H 0.0 **** 0.06
18671 C 116.4653321038793 76.95724736689573 15.917219485679425 C 0.0 **** -0.24
18672 H 115.40996867139069 77.21833143206607 15.836818719885144 H 0.0 **** 0.06
18673 H 117.05443443580215 77.86538378219501 16.047863516756138 H 0.0 **** 0.06
18674 H 116.78217318370636 76.44519220602632 15.008360640803915 H 0.0 **** 0.06
18675 H 116.613089482233 76.30098774677475 16.774280825031042 H 0.0 **** 0.06
18676 C 102.06255059168865 30.98812882413756 108.7437273207662 C 0.0 **** -0.24
18677 H 101.08142314887192 31.231272541012004 108.33583370316705 H 0.0 **** 0.06
18678 H 102.0595442210352 31.153264077081758 109.82097214839166 H 0.0 **** 0.06
18679 H 102.81565451483618 31.625646456826644 108.27994082797602 H 0.0 **** 0.06
18680 H 102.29296421399505 29.943220471515986 108.53536408127081 H 0.0 **** 0.06
18681 C 52.99089388433782 95.34416397186737 105.46741567579099 C 0.0 **** -0.24
18682 H 52.88473154992673 96.36981985434747 105.82186135773708 H 0.0 **** 0.06
18683 H 52.05940537847823 94.80354141075745 105.63564928417469 H 0.0 **** 0.06
18684 H 53.799310238086434 94.85520385471364 106.01034853773197 H 0.0 **** 0.06
18685 H 53.2204047569586 95.35090521864828 104.40174947163348 H 0.0 **** 0.06
18686 C 97.51760904946104 44.477660723634074 66.7781207551991 C 0.0 **** -0.24
18687 H 97.88077529048678 44.99232405079178 65.88872317642534 H 0.0 **** 0.06
18688 H 98.04420747238785 44.85482455428385 67.65562275321685 H 0.0 **** 0.06
18689 H 97.69790930063613 43.407510999009304 66.67836359041826 H 0.0 **** 0.06
18690 H 96.4483700817052 44.65788693244701 66.89107515048448 H 0.0 **** 0.06
18691 C 110.33556167722031 76.13449742096759 67.18997735239921 C 0.0 **** -0.24
18692 H 110.69407990644146 77.04170336062793 66.70381052803586 H 0.0 **** 0.06
18693 H 110.8225656852369 75.26713249915886 66.74402182471925 H 0.0 **** 0.06
18694 H 109.25691566920119 76.05384013941872 67.05729241425516 H 0.0 **** 0.06
18695 H 110.56862594508169 76.17659188861066 68.25418234249446 H 0.0 **** 0.06
18696 C 0.01671716492643327 65.39776498098169 110.88491548156739 C 0.0 **** -0.24
18697 H 0.9079839366131353 64.79023811211968 111.04205483502739 H 0.0 **** 0.06
18698 H -0.5246061877270165 65.4970802702693 111.82645077118407 H 0.0 **** 0.06
18699 H -0.6245541359091362 64.91847659255859 110.14575728201478 H 0.0 **** 0.06
18700 H 0.3093238641265543 66.38523846185399 110.52723321437284 H 0.0 **** 0.06
18701 C 74.81728281166457 66.65863855759639 97.79630850060633 C 0.0 **** -0.24
18702 H 75.09943402696123 67.24360144031868 98.67169655527562 H 0.0 **** 0.06
18703 H 73.8128017868199 66.94174007307865 97.47941323018162 H 0.0 **** 0.06
18704 H 74.83386158540475 65.59829775830067 98.04713240250064 H 0.0 **** 0.06
18705 H 75.52134767506061 66.85267395931771 96.98724295856488 H 0.0 **** 0.06
18706 C 28.81194955981391 10.655840479184462 110.47893328957713 C 0.0 **** -0.24
18707 H 28.315387924674837 11.623426068105687 110.54955043985115 H 0.0 **** 0.06
18708 H 29.087774182068017 10.315301864653321 111.47693647409898 H 0.0 **** 0.06
18709 H 29.70835584826517 10.752645013249804 109.8664238804605 H 0.0 **** 0.06
18710 H 28.13514811870226 9.933441099361545 110.02204150138522 H 0.0 **** 0.06
18711 C 22.285620430250276 44.7003841135776 15.535698209294594 C 0.0 **** -0.24
18712 H 22.178278968399923 45.68762990642327 15.084319448917569 H 0.0 **** 0.06
18713 H 22.176091802885054 43.935614356592396 14.765974949434423 H 0.0 **** 0.06
18714 H 21.51810091973104 44.56391501014161 16.296640413564177 H 0.0 **** 0.06
18715 H 23.271151957102205 44.6167543242307 15.993611725816976 H 0.0 **** 0.06
18716 C 62.36714470590039 122.5531771344301 113.48047385017354 C 0.0 **** -0.24
18717 H 62.599023472090266 122.15095399069376 114.46743129349288 H 0.0 **** 0.06
18718 H 62.186380149340835 123.6260129603272 113.55918021585543 H 0.0 **** 0.06
18719 H 61.47760832456555 122.06135016086725 113.08779670240116 H 0.0 **** 0.06
18720 H 63.208222165807115 122.37384882719962 112.81006707471057 H 0.0 **** 0.06
18721 C 101.32440853266729 73.26434981784439 79.32052830814882 C 0.0 **** -0.24
18722 H 101.49636368125351 72.3807133301978 79.93452918228058 H 0.0 **** 0.06
18723 H 101.74972483201901 73.10541985267218 78.32884462695273 H 0.0 **** 0.06
18724 H 101.79950646250342 74.12776583914757 79.78594515842258 H 0.0 **** 0.06
18725 H 100.25302289385678 73.44171792158434 79.23186914675091 H 0.0 **** 0.06
18726 C 116.82121572268294 17.501308105592013 27.47774610974463 C 0.0 **** -0.24
18727 H 116.5615643971786 16.56519256684826 26.983291842156717 H 0.0 **** 0.06
18728 H 117.41148575189958 18.11848062505323 26.799903545954095 H 0.0 **** 0.06
18729 H 117.40185568861705 17.289636749499863 28.37475921519834 H 0.0 **** 0.06
18730 H 115.90917451013797 18.032710634973537 27.75108903217935 H 0.0 **** 0.06
18731 C 94.09413912091577 56.63940510965893 120.57443769327021 C 0.0 **** -0.24
18732 H 94.76782414217647 56.69580987906422 119.71915812062859 H 0.0 **** 0.06
18733 H 94.44834778501306 57.30671450172692 121.35982008306243 H 0.0 **** 0.06
18734 H 94.06886693866673 55.61645089422044 120.94998278957456 H 0.0 **** 0.06
18735 H 93.09173584401418 56.93882009481923 120.26782965895727 H 0.0 **** 0.06
18736 C 45.41816299164506 118.6627440915608 40.939530529816665 C 0.0 **** -0.24
18737 H 44.47131195510042 118.6029503328501 41.47588203015542 H 0.0 **** 0.06
18738 H 45.856153510883445 119.64975767111906 41.08475991194976 H 0.0 **** 0.06
18739 H 45.24544161808225 118.49396624896528 39.877116562916456 H 0.0 **** 0.06
18740 H 46.09944973603439 117.9025155158401 41.32201324814861 H 0.0 **** 0.06
18741 C 55.81841514824595 21.619380129563154 11.93675184108977 C 0.0 **** -0.24
18742 H 55.35589753254169 20.846547449839846 11.322456099230589 H 0.0 **** 0.06
18743 H 55.14424812531618 22.472478758914264 12.015724658470546 H 0.0 **** 0.06
18744 H 56.75441755264302 21.936113790987406 11.47721143184079 H 0.0 **** 0.06
18745 H 56.018439709499035 21.22113663169614 12.931472615485138 H 0.0 **** 0.06
18746 C 25.178786533116835 87.28228738672209 82.96789313060552 C 0.0 **** -0.24
18747 H 26.010795810794576 87.95123240333947 83.18667207671564 H 0.0 **** 0.06
18748 H 24.497197385844714 87.26061331349206 83.81806286800432 H 0.0 **** 0.06
18749 H 25.56014487373136 86.2779463682221 82.780828647564 H 0.0 **** 0.06
18750 H 24.647168330999506 87.63880723095642 82.08518940861813 H 0.0 **** 0.06
18751 C 93.53686374558191 22.31144323387398 27.95306788382885 C 0.0 **** -0.24
18752 H 92.48364928038797 22.54963830722137 28.097879704209248 H 0.0 **** 0.06
18753 H 93.66040006618235 21.765548319308117 27.017693277783394 H 0.0 **** 0.06
18754 H 93.88725180073493 21.697547406392687 28.782314655129994 H 0.0 **** 0.06
18755 H 94.11565811379495 23.234545293036433 27.913687324272956 H 0.0 **** 0.06
18756 C 1.9749018862628134 47.53754785369625 32.075729441767386 C 0.0 **** -0.24
18757 H 2.0343165126781457 48.60379461996931 32.295820119514374 H 0.0 **** 0.06
18758 H 1.589780698044919 47.00781723514126 32.94784890059349 H 0.0 **** 0.06
18759 H 2.969359606334521 47.16175488546497 31.832037632646212 H 0.0 **** 0.06
18760 H 1.3077330371788207 47.377470274747395 31.229676879622545 H 0.0 **** 0.06
18761 C 13.281534214181917 64.72540017214934 87.58535416078064 C 0.0 **** -0.24
18762 H 12.6132324684895 64.10214605075944 86.99222336762287 H 0.0 **** 0.06
18763 H 14.235573797023733 64.21326505052545 87.71578919352382 H 0.0 **** 0.06
18764 H 12.833494173594431 64.9134518607562 88.56122496761765 H 0.0 **** 0.06
18765 H 13.445129463130698 65.67328776833057 87.0720191184873 H 0.0 **** 0.06
18766 C 46.094897983319285 119.77695381174848 27.992920882339455 C 0.0 **** -0.24
18767 H 45.6485655655492 119.32828094693755 28.88105388421284 H 0.0 **** 0.06
18768 H 45.89300002318078 119.14509707674381 27.127250343986027 H 0.0 **** 0.06
18769 H 47.17139713055465 119.86842878823265 28.13438817643872 H 0.0 **** 0.06
18770 H 45.663594539395696 120.76492970923024 27.83061218124157 H 0.0 **** 0.06
18771 C 104.06015479867406 115.98621954193558 77.34808910952677 C 0.0 **** -0.24
18772 H 104.74784664103652 115.23406166460339 77.73282734228374 H 0.0 **** 0.06
18773 H 103.63499841422214 115.64095035445578 76.40458686741397 H 0.0 **** 0.06
18774 H 104.59788308191057 116.92025414037565 77.18414152383423 H 0.0 **** 0.06
18775 H 103.25975863922571 116.1495066549206 78.06907689105711 H 0.0 **** 0.06
18776 C 13.577850728754782 53.02410768700716 115.7125419112068 C 0.0 **** -0.24
18777 H 13.212597566139735 52.59337217694278 114.78105970891852 H 0.0 **** 0.06
18778 H 14.432808698018789 53.668186812679636 115.50412371981959 H 0.0 **** 0.06
18779 H 13.881504589481537 52.22466141312685 116.38814837826794 H 0.0 **** 0.06
18780 H 12.785753655091938 53.61123832470153 116.17742897068942 H 0.0 **** 0.06
18781 C 94.28645294568457 20.072520421944546 40.909609924533484 C 0.0 **** -0.24
18782 H 93.91345249294108 19.622491074594336 41.82935138213133 H 0.0 **** 0.06
18783 H 93.56012712132801 19.91910004921715 40.110415198782796 H 0.0 **** 0.06
18784 H 95.23285389732345 19.605528080306442 40.63510204330738 H 0.0 **** 0.06
18785 H 94.43905103038082 21.14055981751767 41.06211486163798 H 0.0 **** 0.06
18786 C 104.63497245388663 91.88734695222718 119.33336673138541 C 0.0 **** -0.24
18787 H 105.66146121025866 92.02452743975823 118.99121536514457 H 0.0 **** 0.06
18788 H 103.9726373368456 91.80578981196265 118.47126129671898 H 0.0 **** 0.06
18789 H 104.33764759585506 92.74214163145109 119.94132737740733 H 0.0 **** 0.06
18790 H 104.57034097859452 90.97771400020804 119.93040843195035 H 0.0 **** 0.06
18791 C 6.283054868509197 11.255585507611954 69.85665262834365 C 0.0 **** -0.24
18792 H 5.467918965942516 10.644434469197847 70.24443479686181 H 0.0 **** 0.06
18793 H 5.985941989220493 11.69483939197437 68.90449713923431 H 0.0 **** 0.06
18794 H 7.166381807815355 10.633508289632061 69.71097626566524 H 0.0 **** 0.06
18795 H 6.510349157045141 12.049634331127777 70.56823391313551 H 0.0 **** 0.06
18796 C 75.59028644560527 103.60785199139602 10.288846793261115 C 0.0 **** -0.24
18797 H 75.01497765330612 104.3458372427728 10.847408932222095 H 0.0 **** 0.06
18798 H 75.37962420800528 103.71375789193033 9.224190254339646 H 0.0 **** 0.06
18799 H 75.31301628681013 102.60609199788624 10.617200733400779 H 0.0 **** 0.06
18800 H 76.65407924074225 103.76702018197392 10.46667405105353 H 0.0 **** 0.06
18801 C 110.47178862992928 92.4073512921176 0.4980222597261257 C 0.0 **** -0.24
18802 H 109.69893675229113 92.45645407620157 1.2647751496174102 H 0.0 **** 0.06
18803 H 110.27623594223547 93.16169293040792 -0.26488535910134914 H 0.0 **** 0.06
18804 H 110.46731366215309 91.41777191071208 0.0406670677285117 H 0.0 **** 0.06
18805 H 111.44563283854833 92.59324445501272 0.9516370207732265 H 0.0 **** 0.06
18806 C 95.06663789741924 1.0515208700761463 108.7321295831693 C 0.0 **** -0.24
18807 H 94.61463968207605 1.333692702636668 107.78092359416553 H 0.0 **** 0.06
18808 H 94.65961576016781 1.6781385161716855 109.52672100207354 H 0.0 **** 0.06
18809 H 96.14665908216526 1.1906294903728565 108.67679240308831 H 0.0 **** 0.06
18810 H 94.84566275151283 0.00605325423670422 108.94438534984084 H 0.0 **** 0.06
18811 C 47.074491520360596 27.923071193476886 33.87272702772415 C 0.0 **** -0.24
18812 H 47.759341552035096 27.62142986994462 33.080970115868524 H 0.0 **** 0.06
18813 H 46.76094147235972 28.95455406409866 33.70920138840941 H 0.0 **** 0.06
18814 H 47.576241095620446 27.84294620050437 34.837217823820154 H 0.0 **** 0.06
18815 H 46.200106652547845 27.27088087686559 33.86383166395754 H 0.0 **** 0.06
18816 C 99.89723929271867 82.07615771574899 21.383597127250482 C 0.0 **** -0.24
18817 H 100.15857845412609 82.50307804422681 20.415927276271447 H 0.0 **** 0.06
18818 H 98.81640991505145 81.94471829490689 21.44285683528193 H 0.0 **** 0.06
18819 H 100.22563677458635 82.74688348690736 22.17690860767047 H 0.0 **** 0.06
18820 H 100.38833202711064 81.10995103695473 21.498695789778225 H 0.0 **** 0.06
18821 C 121.045936969955 109.38964940527626 50.14260655442013 C 0.0 **** -0.24
18822 H 121.51833709256888 108.98754030116413 49.24523559744557 H 0.0 **** 0.06
18823 H 120.03191673480248 108.99750199023379 50.224628090716976 H 0.0 **** 0.06
18824 H 121.01234680517842 110.47718614456795 50.0784219452251 H 0.0 **** 0.06
18825 H 121.62284778072964 109.09381584589318 51.01938566307564 H 0.0 **** 0.06
18826 C 115.9105539636729 119.21277265064015 69.856221337108 C 0.0 **** -0.24
18827 H 116.13559940162827 118.583715064057 70.71716977010362 H 0.0 **** 0.06
18828 H 116.49209135320672 118.87504391456878 68.99783870201821 H 0.0 **** 0.06
18829 H 116.1675804278014 120.24743020500318 70.08520893896676 H 0.0 **** 0.06
18830 H 114.84791732666514 119.14511372216975 69.6245734597945 H 0.0 **** 0.06
18831 C 67.14212519100681 41.479918773664664 104.43789117343337 C 0.0 **** -0.24
18832 H 68.1425949132763 41.112799114059555 104.66798387314648 H 0.0 **** 0.06
18833 H 66.69898882182804 40.86203256710209 103.65674206040057 H 0.0 **** 0.06
18834 H 67.20354480931621 42.512389614331084 104.09450261873624 H 0.0 **** 0.06
18835 H 66.522901242476 41.43130227700652 105.33487634273345 H 0.0 **** 0.06
18836 C 42.22045506608109 89.58464380210859 4.5897827517872845 C 0.0 **** -0.24
18837 H 41.34767047964826 89.50809352225332 3.9415025368451317 H 0.0 **** 0.06
18838 H 43.111947595342286 89.2977719008897 4.031720270382619 H 0.0 **** 0.06
18839 H 42.09645863818386 88.91898861344367 5.444828520601128 H 0.0 **** 0.06
18840 H 42.32476620076437 90.61118137736298 4.939816852664727 H 0.0 **** 0.06
18841 C 115.03862330340367 63.77217760454668 36.9674332516079 C 0.0 **** -0.24
18842 H 114.2323557229572 64.45419707340372 36.69520682011961 H 0.0 **** 0.06
18843 H 114.65092562649642 62.75464390299306 37.02110663793235 H 0.0 **** 0.06
18844 H 115.44330489832367 64.05955634647697 37.93812961119852 H 0.0 **** 0.06
18845 H 115.82609160116041 63.82349270803689 36.216061489702085 H 0.0 **** 0.06
18846 C 6.918518940506075 98.94297089271498 34.4898592927091 C 0.0 **** -0.24
18847 H 6.492202687030883 99.09766200032965 33.49889197767057 H 0.0 **** 0.06
18848 H 7.8647019446813005 98.40873775049843 34.39877224943365 H 0.0 **** 0.06
18849 H 6.2266866497944875 98.35592397741186 35.0940067400297 H 0.0 **** 0.06
18850 H 7.089206221485654 99.9071629754311 34.966492789987115 H 0.0 **** 0.06
18851 C 60.41050619252417 62.078725081746995 63.66448485019769 C 0.0 **** -0.24
18852 H 61.090509184444045 62.87373051728497 63.968422912911954 H 0.0 **** 0.06
18853 H 59.39342792618436 62.46899496794862 63.616470282465805 H 0.0 **** 0.06
18854 H 60.45444878099801 61.26690899328656 64.39021537318229 H 0.0 **** 0.06
18855 H 60.7041816068226 61.70494620410108 62.68360757483706 H 0.0 **** 0.06
18856 C 112.26294343585641 104.54580700188754 81.7723406637046 C 0.0 **** -0.24
18857 H 111.32527848001223 104.59945312696217 81.2175093787568 H 0.0 **** 0.06
18858 H 112.95340831814212 105.29934497358047 81.39086194720619 H 0.0 **** 0.06
18859 H 112.70101486753776 103.55527470360818 81.6502902321493 H 0.0 **** 0.06
18860 H 112.06967319494578 104.73052644019404 82.82861166162138 H 0.0 **** 0.06
18861 C 106.94614961473047 67.14888425759983 58.54299682594754 C 0.0 **** -0.24
18862 H 106.71286807980181 66.12015480133422 58.26476369960733 H 0.0 **** 0.06
18863 H 106.02150935169703 67.7203759681505 58.62325722962757 H 0.0 **** 0.06
18864 H 107.58488403326965 67.59473895143697 57.78000789470852 H 0.0 **** 0.06
18865 H 107.46494276183216 67.15713781319178 59.501302961039165 H 0.0 **** 0.06
18866 C 49.817718485017735 122.40542214785704 106.65528160644371 C 0.0 **** -0.24
18867 H 50.181612571644166 121.88498784668792 107.54083924236198 H 0.0 **** 0.06
18868 H 49.39869410786491 123.36938733635365 106.94619205699951 H 0.0 **** 0.06
18869 H 49.04711082457487 121.80519957783389 106.17162488413933 H 0.0 **** 0.06
18870 H 50.644330870567046 122.56294259229958 105.96172954702169 H 0.0 **** 0.06
18871 C 73.64388481099371 15.554391822905245 43.743924627376146 C 0.0 **** -0.24
18872 H 74.61604569274945 15.061238879479305 43.74157205198554 H 0.0 **** 0.06
18873 H 73.02012407846445 15.123147130215372 44.52767124447553 H 0.0 **** 0.06
18874 H 73.1625852730495 15.412021587343531 42.7763577821317 H 0.0 **** 0.06
18875 H 73.77775410382642 16.61973304939204 43.93025279015603 H 0.0 **** 0.06
18876 C 45.99759707342156 97.73529160980101 48.69997694866969 C 0.0 **** -0.24
18877 H 45.12783287618373 97.1684654473874 48.36631764935557 H 0.0 **** 0.06
18878 H 46.57217586196049 98.06021289526907 47.83261918005644 H 0.0 **** 0.06
18879 H 46.620741734880596 97.10393382080665 49.33389669105978 H 0.0 **** 0.06
18880 H 45.667466508434075 98.60586112566276 49.26605787395148 H 0.0 **** 0.06
18881 C 60.27245471599272 78.85098018794997 118.3147573343403 C 0.0 **** -0.24
18882 H 60.82505240705785 79.76103688741404 118.0799920111372 H 0.0 **** 0.06
18883 H 59.25211102364736 78.93948358515931 117.942068439693 H 0.0 **** 0.06
18884 H 60.25443244180502 78.70458708119904 119.39427358242165 H 0.0 **** 0.06
18885 H 60.759798066447075 77.99866665238866 117.84111481637595 H 0.0 **** 0.06
18886 C 67.46413539673162 119.19314324080142 3.8874977540504734 C 0.0 **** -0.24
18887 H 68.38928298017106 119.61103948111821 3.490680661984076 H 0.0 **** 0.06
18888 H 67.61269122661449 118.90907139571397 4.930007017425162 H 0.0 **** 0.06
18889 H 67.18515156955311 118.31311650130283 3.3078451850663377 H 0.0 **** 0.06
18890 H 66.67149622896582 119.93777091564505 3.8229389543916366 H 0.0 **** 0.06
18891 C 51.13316064232862 120.38887764866654 67.26848487175857 C 0.0 **** -0.24
18892 H 50.83469949270108 121.34888866542842 66.84731635690437 H 0.0 **** 0.06
18893 H 52.138473150501824 120.14068352287498 66.926914071351 H 0.0 **** 0.06
18894 H 50.43740091075762 119.61684812405798 66.94198240475978 H 0.0 **** 0.06
18895 H 51.12442365895578 120.45073173727761 68.35639931242551 H 0.0 **** 0.06
18896 C 57.32497453090326 74.79005787786843 26.347252712568206 C 0.0 **** -0.24
18897 H 57.28528386115411 73.90203031456292 26.97885613379009 H 0.0 **** 0.06
18898 H 57.97759485159179 75.53275188597627 26.806478662198685 H 0.0 **** 0.06
18899 H 56.32305712924955 75.20406264781491 26.23944904520829 H 0.0 **** 0.06
18900 H 57.7150744752289 74.52107610242149 25.36551803363443 H 0.0 **** 0.06
18901 C 94.19083803401446 79.83718579630661 42.14996135823753 C 0.0 **** -0.24
18902 H 93.98673894737158 79.49187466727102 43.16344984533699 H 0.0 **** 0.06
18903 H 93.2810560724266 79.76856920669238 41.553296718089314 H 0.0 **** 0.06
18904 H 94.96759868206468 79.21532991054835 41.704236872529904 H 0.0 **** 0.06
18905 H 94.52821022127415 80.8739046120117 42.18029801582534 H 0.0 **** 0.06
18906 C 69.58821429313659 92.86791529452665 48.14945864251698 C 0.0 **** -0.24
18907 H 70.0626826781905 92.13956416676635 48.80829443633365 H 0.0 **** 0.06
18908 H 69.31516216638494 93.75298803612407 48.72425940684511 H 0.0 **** 0.06
18909 H 68.69319491828097 92.42994557182112 47.708601612059645 H 0.0 **** 0.06
18910 H 70.28461496201345 93.1483815521268 47.358815263982706 H 0.0 **** 0.06
18911 C 71.34457616382753 63.286965582831264 50.68145296980856 C 0.0 **** -0.24
18912 H 70.91121745420472 63.85084687637035 51.50883581249826 H 0.0 **** 0.06
18913 H 72.41562117712348 63.48255421792842 50.63032774046522 H 0.0 **** 0.06
18914 H 70.87354303926267 63.59332903484519 49.74769907637757 H 0.0 **** 0.06
18915 H 71.17691366133374 62.22186230510976 50.841488671346525 H 0.0 **** 0.06
18916 C 21.562659593074038 28.921483080476435 93.02993023511283 C 0.0 **** -0.24
18917 H 20.616901180773137 29.00146869999557 93.56668856381256 H 0.0 **** 0.06
18918 H 21.41717871712647 28.33251539293468 92.12427714734383 H 0.0 **** 0.06
18919 H 22.30146707935483 28.433837778346415 93.66592212785372 H 0.0 **** 0.06
18920 H 21.91375969744452 29.918328543452404 92.76325633701927 H 0.0 **** 0.06
18921 C 56.77377800758251 29.31022424706447 31.1617041445445 C 0.0 **** -0.24
18922 H 57.72388415324724 29.45100723333057 30.646160156835066 H 0.0 **** 0.06
18923 H 56.17662591574634 30.217757262415105 31.07564424011774 H 0.0 **** 0.06
18924 H 56.961022808970654 29.095104366464 32.21325200084853 H 0.0 **** 0.06
18925 H 56.23601005596237 28.476386433047537 30.710123281247647 H 0.0 **** 0.06
18926 C 98.54512962569328 27.189074617449307 8.074570758166942 C 0.0 **** -0.24
18927 H 98.4365756889944 26.415605890597988 8.834593308213073 H 0.0 **** 0.06
18928 H 98.21964474774026 26.79888948678183 7.110290569308631 H 0.0 **** 0.06
18929 H 99.5903954908714 27.491737590056857 8.010613468555732 H 0.0 **** 0.06
18930 H 97.93326358544996 28.050716659215652 8.34319525044856 H 0.0 **** 0.06
18931 C 80.23783038953374 54.1432583212665 121.76215507825972 C 0.0 **** -0.24
18932 H 80.27943213561875 55.13897291855494 121.31931771498662 H 0.0 **** 0.06
18933 H 79.63828650825513 53.48959427888249 121.12876927768829 H 0.0 **** 0.06
18934 H 79.78576096742401 54.2054852278346 122.75215365998673 H 0.0 **** 0.06
18935 H 81.24681467320846 53.74120459868439 121.84838497195557 H 0.0 **** 0.06
18936 C 39.00586485083684 7.280091825836166 36.11048046715743 C 0.0 **** -0.24
18937 H 39.08862943952175 7.052829177814829 37.17383548930181 H 0.0 **** 0.06
18938 H 38.050964487608695 6.911509981581958 35.734911718519555 H 0.0 **** 0.06
18939 H 39.82076874501368 6.795594892003635 35.57222447136061 H 0.0 **** 0.06
18940 H 39.06343884096384 8.357890615288625 35.96348370150834 H 0.0 **** 0.06
18941 C 86.89905964072267 115.38414983479421 32.12428955497529 C 0.0 **** -0.24
18942 H 87.76261730195344 115.78185093147604 31.59055537983238 H 0.0 **** 0.06
18943 H 85.98974855315763 115.84344647266752 31.73652019429636 H 0.0 **** 0.06
18944 H 86.99449120572461 115.60871056269067 33.186632449370165 H 0.0 **** 0.06
18945 H 86.85128820637402 114.30529864721899 31.98326110998778 H 0.0 **** 0.06
18946 C 21.64835960573467 61.103352546950305 37.66511886088605 C 0.0 **** -0.24
18947 H 21.380906680860647 61.67128831513452 36.77444552842097 H 0.0 **** 0.06
18948 H 21.55069752445351 60.03688427179162 37.45910009050018 H 0.0 **** 0.06
18949 H 20.984031138073306 61.37805215356235 38.48432758322958 H 0.0 **** 0.06
18950 H 22.67854183530477 61.327749944564005 37.942970532653646 H 0.0 **** 0.06
18951 C 32.3159517015396 50.43249857952037 33.47475048795289 C 0.0 **** -0.24
18952 H 32.42872297394587 50.12237249588537 32.43630042397075 H 0.0 **** 0.06
18953 H 32.93954559870096 49.8051186410907 34.110925890528165 H 0.0 **** 0.06
18954 H 31.272511142110744 50.32873651600107 33.77265713825179 H 0.0 **** 0.06
18955 H 32.62162172686965 51.474115975823906 33.57816818356403 H 0.0 **** 0.06
18956 C 62.30870041441517 102.52328877596759 44.319764901806735 C 0.0 **** -0.24
18957 H 61.32791584553868 102.96730338000123 44.1469996381405 H 0.0 **** 0.06
18958 H 63.057768246323064 103.06015519125418 43.7374394062673 H 0.0 **** 0.06
18959 H 62.29200605184516 101.47743012764971 44.014379778160844 H 0.0 **** 0.06
18960 H 62.55509913491204 102.58870136357359 45.378913578729936 H 0.0 **** 0.06
18961 C 95.99407172597051 105.03285581216167 66.5687718685225 C 0.0 **** -0.24
18962 H 95.73979305018915 105.2264960859313 67.61157482759876 H 0.0 **** 0.06
18963 H 96.58497435827957 104.11862217559636 66.50299851886535 H 0.0 **** 0.06
18964 H 96.5701430122366 105.8692351544016 66.17469253722578 H 0.0 **** 0.06
18965 H 95.07841693213669 104.91613229020115 65.98791033426863 H 0.0 **** 0.06
18966 C 38.4219435625013 1.3876273708757338 5.676594175423318 C 0.0 **** -0.24
18967 H 37.36566504808039 1.462641187784314 5.419338029487804 H 0.0 **** 0.06
18968 H 38.545621172430515 0.6800747432641856 6.497417143385562 H 0.0 **** 0.06
18969 H 38.792433053963094 2.3662827823068824 5.9810908613433895 H 0.0 **** 0.06
18970 H 38.98362379740618 1.0393788660784793 4.809049655701642 H 0.0 **** 0.06
18971 C 106.54987366646273 53.98630648177238 2.554134379442246 C 0.0 **** -0.24
18972 H 105.6415207778094 53.94929021089336 1.951876946964461 H 0.0 **** 0.06
18973 H 106.4588940009831 54.77709205500414 3.2996141422190703 H 0.0 **** 0.06
18974 H 107.40482598324007 54.18940070225191 1.910019214597014 H 0.0 **** 0.06
18975 H 106.69067211115919 53.02924129289888 3.0553888986114544 H 0.0 **** 0.06
18976 C 106.82652644212382 35.834691991405975 95.18802264921149 C 0.0 **** -0.24
18977 H 106.70554407156183 36.52648526925611 96.02093104259598 H 0.0 **** 0.06
18978 H 107.88644851424317 35.618816260959534 95.04697265451358 H 0.0 **** 0.06
18979 H 106.42265828891854 36.283972267119395 94.27997311504964 H 0.0 **** 0.06
18980 H 106.29282837854157 34.909341878326245 95.40391302119133 H 0.0 **** 0.06
18981 C 114.13627022705082 19.597200649428885 50.341437149875894 C 0.0 **** -0.24
18982 H 114.54503044992927 19.07108973893952 49.4784571109712 H 0.0 **** 0.06
18983 H 113.79066429681113 20.584132139147528 50.034999775268965 H 0.0 **** 0.06
18984 H 114.90887027521674 19.702053345363993 51.10228216287378 H 0.0 **** 0.06
18985 H 113.29955080117286 19.029276101878736 50.74998276566969 H 0.0 **** 0.06
18986 C 82.76134146728225 10.06274649547544 65.90984866042027 C 0.0 **** -0.24
18987 H 83.7616405965496 10.490707795466797 65.85534334073373 H 0.0 **** 0.06
18988 H 82.04353489044564 10.847118003430921 66.14847419821632 H 0.0 **** 0.06
18989 H 82.73564180984485 9.297953876656905 66.68619517901266 H 0.0 **** 0.06
18990 H 82.5054514035539 9.614410463929971 64.95012464969702 H 0.0 **** 0.06
18991 C 107.03212000287903 25.344850646230917 16.57344922738321 C 0.0 **** -0.24
18992 H 108.08330749387846 25.243100372766968 16.304914622667518 H 0.0 **** 0.06
18993 H 106.70979755756494 24.459861882039903 17.121667461201437 H 0.0 **** 0.06
18994 H 106.43353215981796 25.449487924889546 15.667734125816764 H 0.0 **** 0.06
18995 H 106.90183297708364 26.22833919816417 17.199203535310563 H 0.0 **** 0.06
18996 C 24.936244119600673 103.28852454950592 11.353970063395337 C 0.0 **** -0.24
18997 H 23.896123244674442 103.06781725355714 11.59388876918041 H 0.0 **** 0.06
18998 H 25.588314156774203 102.80117810690845 12.079739527657182 H 0.0 **** 0.06
18999 H 25.096369035051268 104.36611642845043 11.387404704047754 H 0.0 **** 0.06
19000 H 25.165008689415302 102.91851531452906 10.353810502208688 H 0.0 **** 0.06
19001 C 59.238899572057484 59.131296233207024 56.01028096816202 C 0.0 **** -0.24
19002 H 59.10676731855913 58.9498415292708 57.07748031867578 H 0.0 **** 0.06
19003 H 58.29158186120827 58.972746487423336 55.49487504373246 H 0.0 **** 0.06
19004 H 59.98755437584989 58.444291957453885 55.615400916836506 H 0.0 **** 0.06
19005 H 59.570340450313104 60.15825342387282 55.8557299495979 H 0.0 **** 0.06
19006 C 0.30066212820963756 67.64185231071235 106.69528815960493 C 0.0 **** -0.24
19007 H 0.8938619378890849 67.83833635004626 107.58800541614053 H 0.0 **** 0.06
19008 H 0.4278746635579864 66.60064909958061 106.39658253266174 H 0.0 **** 0.06
19009 H 0.6316960299551511 68.29513408044127 105.88807096055919 H 0.0 **** 0.06
19010 H -0.7512569063812293 67.83266995935011 106.90912017380987 H 0.0 **** 0.06
19011 C 101.38126981513949 6.6421825585339604 38.94075585827308 C 0.0 **** -0.24
19012 H 100.86536835457397 5.8017173342795445 38.47626255436725 H 0.0 **** 0.06
19013 H 101.86041898400848 7.245492291142369 38.16900613930385 H 0.0 **** 0.06
19014 H 102.13815930931466 6.267220779834034 39.63118558126486 H 0.0 **** 0.06
19015 H 100.66299661757117 7.252822100577035 39.485984231893745 H 0.0 **** 0.06
19016 C 11.395613715958063 104.42409835619617 61.184589666302266 C 0.0 **** -0.24
19017 H 11.77561637554885 104.7500190505142 60.21635735496802 H 0.0 **** 0.06
19018 H 11.147728777968496 103.36331459935991 61.1388617021429 H 0.0 **** 0.06
19019 H 10.502846144077438 104.99675710887357 61.43611332750093 H 0.0 **** 0.06
19020 H 12.157978950477911 104.58727296366737 61.94736716483997 H 0.0 **** 0.06
19021 C 17.514842884683745 112.38101480701826 10.937587591794426 C 0.0 **** -0.24
19022 H 17.511148886904863 111.7885127172562 11.852672165259605 H 0.0 **** 0.06
19023 H 16.565671370869225 112.25151249718562 10.417747511868896 H 0.0 **** 0.06
19024 H 18.329984098530346 112.05011632142242 10.294729074306815 H 0.0 **** 0.06
19025 H 17.65281347954931 113.43302585953532 11.186974803510537 H 0.0 **** 0.06
19026 C 91.6000517825596 103.2965923864736 22.353480863369924 C 0.0 **** -0.24
19027 H 90.93000442258202 103.25297472739621 23.212443142281273 H 0.0 **** 0.06
19028 H 91.227478583822 104.03152412444129 21.640427821144755 H 0.0 **** 0.06
19029 H 91.64360275710078 102.31713419081643 21.87705658715072 H 0.0 **** 0.06
19030 H 92.5976976940934 103.5837396213231 22.685722088475586 H 0.0 **** 0.06
19031 C 45.27742807466265 76.41009270419161 8.62359539921647 C 0.0 **** -0.24
19032 H 45.26415245485157 77.21268771619131 7.886895951821771 H 0.0 **** 0.06
19033 H 45.265580437582685 75.44745664981366 8.110997437021922 H 0.0 **** 0.06
19034 H 44.39948218614981 76.49169493924879 9.264306889063164 H 0.0 **** 0.06
19035 H 46.179611219451914 76.48855002177032 9.23012828739735 H 0.0 **** 0.06
19036 C 82.10383226532804 78.19276970082325 110.04218340884483 C 0.0 **** -0.24
19037 H 81.95160242807304 77.15796488899511 109.73644958362974 H 0.0 **** 0.06
19038 H 83.17288107463804 78.40123094469345 110.10019866930327 H 0.0 **** 0.06
19039 H 81.64805432969379 78.35416940576226 111.01960184276129 H 0.0 **** 0.06
19040 H 81.64302604709368 78.85910813176955 109.31247120924067 H 0.0 **** 0.06
19041 C 112.19145393667614 49.67557122229367 49.36798939349988 C 0.0 **** -0.24
19042 H 112.98259046631378 49.93814964872749 50.06938273386483 H 0.0 **** 0.06
19043 H 111.52335281182087 48.94866583332234 49.83058274325213 H 0.0 **** 0.06
19044 H 112.63197859706999 49.24325912501271 48.469143774673775 H 0.0 **** 0.06
19045 H 111.6284649014504 50.5700823246201 49.10323042169899 H 0.0 **** 0.06
19046 C 106.14563806461095 106.57081931494264 116.83356366474462 C 0.0 **** -0.24
19047 H 106.13272395952538 105.95741675980037 117.7340477655219 H 0.0 **** 0.06
19048 H 106.29863885595995 105.93405601256927 115.96257838946917 H 0.0 **** 0.06
19049 H 106.95692024444625 107.29672740087582 116.90063742308129 H 0.0 **** 0.06
19050 H 105.19602083213721 107.09639818586663 116.73808048906974 H 0.0 **** 0.06
19051 C 102.01680424451192 112.437213550797 111.29083981672659 C 0.0 **** -0.24
19052 H 102.30468133901084 111.53555353988722 110.75008465752774 H 0.0 **** 0.06
19053 H 101.3197072335717 113.01589306050579 110.68450168382387 H 0.0 **** 0.06
19054 H 102.90388203823196 113.03600156965518 111.49688353700321 H 0.0 **** 0.06
19055 H 101.53779952819801 112.16047007697921 112.2302133740511 H 0.0 **** 0.06
19056 C 105.08896981960999 37.23209018224987 42.609023524210954 C 0.0 **** -0.24
19057 H 104.80187679859472 38.282684405558754 42.57604690585225 H 0.0 **** 0.06
19058 H 104.89484439415429 36.83347065140368 43.60508424136968 H 0.0 **** 0.06
19059 H 106.15121176198937 37.137966868520714 42.380206853705886 H 0.0 **** 0.06
19060 H 104.50869291787274 36.67405337236048 41.8735693677439 H 0.0 **** 0.06
19061 C 68.4412530778838 3.884784384293283 1.65695259157404 C 0.0 **** -0.24
19062 H 69.50907587296481 4.103859576566077 1.6796617062164216 H 0.0 **** 0.06
19063 H 68.19380869737373 3.3822743921456286 0.7219626948130156 H 0.0 **** 0.06
19064 H 67.87935474086561 4.815352059287168 1.7288004893574538 H 0.0 **** 0.06
19065 H 68.18558231366421 3.238767254316542 2.496456267645172 H 0.0 **** 0.06
19066 C 106.30596847783445 3.6056786251211292 102.65992670665895 C 0.0 **** -0.24
19067 H 106.02622090836542 3.672880925440552 101.60916117169918 H 0.0 **** 0.06
19068 H 105.73344149886242 4.332911186079087 103.23595605477018 H 0.0 **** 0.06
19069 H 107.37083152877062 3.8140834553744583 102.76657225996053 H 0.0 **** 0.06
19070 H 106.09408591846903 2.602418976316386 103.02858772240063 H 0.0 **** 0.06
19071 C 93.11877376052328 118.88713236659709 115.10533086254108 C 0.0 **** -0.24
19072 H 93.38160734511717 119.43664569048933 116.0083295618704 H 0.0 **** 0.06
19073 H 93.48891785069267 117.8644779523465 115.1810174264497 H 0.0 **** 0.06
19074 H 93.5699944763748 119.37314554048687 114.23923023804785 H 0.0 **** 0.06
19075 H 92.03438579575243 118.87435723967081 114.99030593794619 H 0.0 **** 0.06
19076 C 70.3286997461343 115.02963583393066 89.773683420047 C 0.0 **** -0.24
19077 H 70.11249346232137 116.05961648077484 90.05721795626147 H 0.0 **** 0.06
19078 H 70.6819995373744 115.00297567204721 88.74320945931191 H 0.0 **** 0.06
19079 H 69.42254762064647 114.42980466039238 89.86342786698316 H 0.0 **** 0.06
19080 H 71.09740780069478 114.62567649293344 90.43325673978671 H 0.0 **** 0.06
19081 C 107.18897891271928 103.05860012247098 50.01833156255071 C 0.0 **** -0.24
19082 H 107.91255100333814 103.5418809851111 49.36215922006602 H 0.0 **** 0.06
19083 H 107.71193034206493 102.40735180481721 50.719317018491836 H 0.0 **** 0.06
19084 H 106.49384075684526 102.46821073492038 49.42144510640935 H 0.0 **** 0.06
19085 H 106.63606507722926 103.81902818626378 50.571945787698894 H 0.0 **** 0.06
19086 C 25.251034127532108 103.04597258304813 47.811452583601124 C 0.0 **** -0.24
19087 H 24.668216018779574 103.27516666142463 48.704106104120456 H 0.0 **** 0.06
19088 H 24.90085238498611 102.10787252393447 47.380982900992706 H 0.0 **** 0.06
19089 H 26.30324406931011 102.95230396532571 48.07955245418009 H 0.0 **** 0.06
19090 H 25.131335277316964 103.84809658041513 47.08352650242517 H 0.0 **** 0.06
19091 C 115.55905422266835 31.512553186170763 120.1873376386919 C 0.0 **** -0.24
19092 H 116.61721607813914 31.29350609797342 120.33034460335747 H 0.0 **** 0.06
19093 H 114.96683741429851 30.89733042790168 120.86625917533391 H 0.0 **** 0.06
19094 H 115.2777317506173 31.293434251354995 119.15822171504328 H 0.0 **** 0.06
19095 H 115.37477865023087 32.56568472704994 120.39824180636144 H 0.0 **** 0.06
19096 C 35.02857021933983 21.22914352964129 54.02682433344656 C 0.0 **** -0.24
19097 H 35.49094239081268 20.65414029341749 53.224854039085265 H 0.0 **** 0.06
19098 H 35.802200181284604 21.604732370728314 54.697562664784165 H 0.0 **** 0.06
19099 H 34.3435981906934 20.590612838552985 54.58351359484268 H 0.0 **** 0.06
19100 H 34.478902321416 22.0684701669313 53.60025528533941 H 0.0 **** 0.06
19101 C 55.357291721322355 62.94256179554844 84.18308180465371 C 0.0 **** -0.24
19102 H 56.12563069779145 63.267033996449356 84.8839106454154 H 0.0 **** 0.06
19103 H 54.54915346739509 63.67420469612148 84.16592400690845 H 0.0 **** 0.06
19104 H 54.965325369245136 61.974594165408405 84.49573526905709 H 0.0 **** 0.06
19105 H 55.78915235815083 62.85555500410055 83.18592667437292 H 0.0 **** 0.06
19106 C 79.50520739046928 113.11856974983431 40.85473894439684 C 0.0 **** -0.24
19107 H 79.65883954107443 113.59151501788426 39.883638955716464 H 0.0 **** 0.06
19108 H 78.43713089262272 112.97818819849869 41.024700160822505 H 0.0 **** 0.06
19109 H 79.91860598236289 113.7553857265118 41.636760772093794 H 0.0 **** 0.06
19110 H 80.00649122769858 112.15148608482622 40.87015823723118 H 0.0 **** 0.06
19111 C 41.67890414159024 107.13198353114254 28.356056242216766 C 0.0 **** -0.24
19112 H 41.260935179626415 107.55410112237698 27.442462358946358 H 0.0 **** 0.06
19113 H 40.90703964784581 106.5680149232063 28.881299834755083 H 0.0 **** 0.06
19114 H 42.03872044829831 107.93738201055976 28.995780091819796 H 0.0 **** 0.06
19115 H 42.50682004673257 106.46920047164119 28.104709891603818 H 0.0 **** 0.06
19116 C 29.34732234618366 43.44377001719075 6.057375344944575 C 0.0 **** -0.24
19117 H 28.368579215623583 43.00494281876394 5.861243368970349 H 0.0 **** 0.06
19118 H 30.052891407616187 42.65409331537811 6.318055620191387 H 0.0 **** 0.06
19119 H 29.26855232923623 44.14879189604092 6.884975229145624 H 0.0 **** 0.06
19120 H 29.697521622356533 43.96548323841293 5.166908674283206 H 0.0 **** 0.06
19121 C 37.57065825963781 66.25026290233453 84.08515661620791 C 0.0 **** -0.24
19122 H 37.468387750732774 66.99579985299502 84.87391738187603 H 0.0 **** 0.06
19123 H 36.58175478414471 65.91784025643912 83.76818930820517 H 0.0 **** 0.06
19124 H 38.13718485382606 65.3980238800722 84.46154397287444 H 0.0 **** 0.06
19125 H 38.09530564984772 66.68938761983154 83.23697580187601 H 0.0 **** 0.06
19126 C 106.95734432059513 112.15978028644486 74.69822577578768 C 0.0 **** -0.24
19127 H 106.8834397844293 113.13944688845214 75.16959671084791 H 0.0 **** 0.06
19128 H 107.72701289072518 112.18542446664725 73.92641373076077 H 0.0 **** 0.06
19129 H 105.99887555448291 111.89921975633817 74.24806688762382 H 0.0 **** 0.06
19130 H 107.22004905274301 111.41503003434207 75.44882577391832 H 0.0 **** 0.06
19131 C 6.530330861907672 95.73741220745657 66.37028231197365 C 0.0 **** -0.24
19132 H 7.504059944306675 95.93279636516027 65.91904851875577 H 0.0 **** 0.06
19133 H 6.624546753297196 95.75225476208658 67.45648590239884 H 0.0 **** 0.06
19134 H 6.17176554011813 94.760196407228 66.05002271932767 H 0.0 **** 0.06
19135 H 5.8244502176729895 96.50572279761582 66.05567867056433 H 0.0 **** 0.06
19136 C 92.16535470713518 9.925942535795272 38.89137971170018 C 0.0 **** -0.24
19137 H 92.34457170796725 10.164527030913945 39.938970158635925 H 0.0 **** 0.06
19138 H 91.28024095850705 10.460416415607536 38.54364481413492 H 0.0 **** 0.06
19139 H 92.0064789292687 8.852212476485036 38.78534930482542 H 0.0 **** 0.06
19140 H 93.02807882340645 10.225812292746664 38.297153059953615 H 0.0 **** 0.06
19141 C 78.37171892966239 80.74357980618947 55.148208835247885 C 0.0 **** -0.24
19142 H 78.66587586693686 81.51131906182525 54.432324571111394 H 0.0 **** 0.06
19143 H 79.12827199439158 80.6675295553461 55.92958453374882 H 0.0 **** 0.06
19144 H 78.28033783598292 79.78580469525664 54.6359808982736 H 0.0 **** 0.06
19145 H 77.41302705291099 81.01074285629088 55.594286176416176 H 0.0 **** 0.06
19146 C 76.66518923738741 66.60293876373495 81.78617550559272 C 0.0 **** -0.24
19147 H 76.72545651055523 65.57035027818489 81.44186747193129 H 0.0 **** 0.06
19148 H 77.57864538169653 66.86028588543934 82.32356599092964 H 0.0 **** 0.06
19149 H 75.80860223028475 66.71393352438224 82.45182635244993 H 0.0 **** 0.06
19150 H 76.54767415193749 67.26532371680094 80.9289885569384 H 0.0 **** 0.06
19151 C 72.15773491124665 8.084310571850352 37.150728258234125 C 0.0 **** -0.24
19152 H 71.94204534068334 7.777378759046343 38.17446310538912 H 0.0 **** 0.06
19153 H 72.81042657086925 7.348773061455347 36.68053117440397 H 0.0 **** 0.06
19154 H 72.65182788664677 9.05617098944873 37.159538692794996 H 0.0 **** 0.06
19155 H 71.2257467238565 8.155908448218838 36.58885374756184 H 0.0 **** 0.06
19156 C 115.14217333046055 72.48856814418889 63.87627888944515 C 0.0 **** -0.24
19157 H 114.20591058584398 72.9804389095051 64.14254271686562 H 0.0 **** 0.06
19158 H 115.50663569952061 72.8894479332676 62.93123676123937 H 0.0 **** 0.06
19159 H 114.97189297349142 71.41627897862548 63.77575665712373 H 0.0 **** 0.06
19160 H 115.88099976648473 72.6673905001322 64.65800789511587 H 0.0 **** 0.06
19161 C 68.87573075589177 104.11775966937995 20.107238349417372 C 0.0 **** -0.24
19162 H 68.43573757244837 103.84236511163189 19.148442750831066 H 0.0 **** 0.06
19163 H 68.1433654419045 103.96464499030063 20.89957479505179 H 0.0 **** 0.06
19164 H 69.1722932408255 105.1657590756727 20.083155256734614 H 0.0 **** 0.06
19165 H 69.75158776302311 103.49598883453021 20.295832430268774 H 0.0 **** 0.06
19166 C 101.12835087569135 86.72052413980245 121.66924180475533 C 0.0 **** -0.24
19167 H 100.18558239155607 86.86879441764506 121.14230475063533 H 0.0 **** 0.06
19168 H 101.92656113067608 87.23964526843326 121.13869418952379 H 0.0 **** 0.06
19169 H 101.35395800421543 85.6547572513384 121.7137786174433 H 0.0 **** 0.06
19170 H 101.04446650468776 87.11733154657307 122.68060790152799 H 0.0 **** 0.06
19171 C 19.542666976556575 40.43328338368656 104.34245487965066 C 0.0 **** -0.24
19172 H 19.86229045198388 39.951636003678914 105.26693841328859 H 0.0 **** 0.06
19173 H 20.36202529980079 41.03117983682728 103.94341491138422 H 0.0 **** 0.06
19174 H 18.687325717297938 41.07699106551928 104.54649127754328 H 0.0 **** 0.06
19175 H 19.25937936042459 39.672007627356834 103.61631204152232 H 0.0 **** 0.06
19176 C 51.79495956227324 113.90323249662373 10.219663325260143 C 0.0 **** -0.24
19177 H 52.223036449506374 114.90566941110258 10.222017480782938 H 0.0 **** 0.06
19178 H 52.1762756359293 113.3433609524267 11.074434705481337 H 0.0 **** 0.06
19179 H 52.07321551641486 113.392285481828 9.297552193665297 H 0.0 **** 0.06
19180 H 50.70940935824316 113.97201464807065 10.283450864222402 H 0.0 **** 0.06
19181 C 68.569596235299 96.3508352486835 120.58127696931203 C 0.0 **** -0.24
19182 H 69.25044890093008 95.65132581974115 120.09611272463648 H 0.0 **** 0.06
19183 H 69.07475584714476 96.82443825692187 121.42294559446252 H 0.0 **** 0.06
19184 H 67.69192499630134 95.81248179908613 120.9394164741925 H 0.0 **** 0.06
19185 H 68.26095959885484 97.11291023259145 119.86626002685185 H 0.0 **** 0.06
19186 C 43.81891814222189 13.268763596268997 7.471245884770209 C 0.0 **** -0.24
19187 H 44.84630695987681 13.442651591049042 7.153014440069516 H 0.0 **** 0.06
19188 H 43.30011279703234 14.223743497077947 7.560299723388237 H 0.0 **** 0.06
19189 H 43.81889040731642 12.763339636271382 8.437383448485637 H 0.0 **** 0.06
19190 H 43.311472631407554 12.645710408607243 6.735070034243375 H 0.0 **** 0.06
19191 C 71.95801579444512 36.83904001629952 114.64303185379866 C 0.0 **** -0.24
19192 H 71.08080418393783 37.00124349311321 114.0179623667349 H 0.0 **** 0.06
19193 H 72.85480336126705 36.85828800786712 114.02207950491412 H 0.0 **** 0.06
19194 H 71.87876731425212 35.87103293976429 115.13677475399601 H 0.0 **** 0.06
19195 H 72.01966449457646 37.62582885866519 115.39429068782347 H 0.0 **** 0.06
19196 C 36.45483022372237 11.101645787697521 54.85080525482317 C 0.0 **** -0.24
19197 H 37.328947782987974 11.686580771575336 55.134524499477436 H 0.0 **** 0.06
19198 H 35.94828960809704 11.585528400520161 54.01534586914258 H 0.0 **** 0.06
19199 H 35.772526293259325 11.032262456950946 55.69797904244456 H 0.0 **** 0.06
19200 H 36.7688177632822 10.099928428076282 54.55488065504457 H 0.0 **** 0.06
19201 C 119.24699908803896 1.936673354741833 62.327179878645175 C 0.0 **** -0.24
19202 H 119.01155669529783 2.3447225873043553 63.30983536345578 H 0.0 **** 0.06
19203 H 119.9997674411464 2.5615192119703636 61.84470014924643 H 0.0 **** 0.06
19204 H 118.34445098148949 1.916746804722539 61.71625354618245 H 0.0 **** 0.06
19205 H 119.63320844432684 0.9235909434796401 62.43804228214815 H 0.0 **** 0.06
19206 C 120.30047360626911 29.439479455237866 13.122420063691607 C 0.0 **** -0.24
19207 H 120.69584575973035 29.41050583878507 12.10706026559609 H 0.0 **** 0.06
19208 H 120.42144543763277 28.461298949047844 13.587516639512842 H 0.0 **** 0.06
19209 H 119.24293063518572 29.69997807055549 13.093070275595153 H 0.0 **** 0.06
19210 H 120.84207922605587 30.187788299212755 13.701714806747077 H 0.0 **** 0.06
19211 C 78.67582600148646 98.4904037857712 23.343720585177103 C 0.0 **** -0.24
19212 H 78.1534628051325 97.55254881937577 23.154118639237872 H 0.0 **** 0.06
19213 H 78.05324667251674 99.32497224588303 23.018884197787926 H 0.0 **** 0.06
19214 H 79.61537763336852 98.50021319601149 22.791215710694694 H 0.0 **** 0.06
19215 H 78.88045823959243 98.5833062065218 24.410970788187747 H 0.0 **** 0.06
19216 C 52.05598901147809 58.173034855343644 50.533404299728886 C 0.0 **** -0.24
19217 H 51.60103758277691 59.13457230710435 50.2932436924811 H 0.0 **** 0.06
19218 H 53.12947066457804 58.304355422192145 50.67255970462139 H 0.0 **** 0.06
19219 H 51.87766767798456 57.47381979611413 49.71707172274694 H 0.0 **** 0.06
19220 H 51.61452910105356 57.781752817599056 51.449813938723196 H 0.0 **** 0.06
19221 C 80.4416889112706 21.33436802732291 67.7440098185408 C 0.0 **** -0.24
19222 H 81.17294191140198 22.038421010436082 68.14139450482935 H 0.0 **** 0.06
19223 H 80.9226655094891 20.68578671572311 67.01225037171207 H 0.0 **** 0.06
19224 H 79.630906696225 21.88516871709038 67.26531259784474 H 0.0 **** 0.06
19225 H 80.03923810450894 20.730330059205755 68.55705077511413 H 0.0 **** 0.06
19226 C 48.29765599030499 95.38723723490799 91.05636060033754 C 0.0 **** -0.24
19227 H 47.67919434344208 94.53157046781934 90.78653349121458 H 0.0 **** 0.06
19228 H 49.221261312700136 95.03610271591654 91.51762510478216 H 0.0 **** 0.06
19229 H 47.75749883126477 96.01995460373041 91.76040540424444 H 0.0 **** 0.06
19230 H 48.53458617176793 95.9608646007704 90.16053481353251 H 0.0 **** 0.06
19231 C 106.44358542006546 84.12054616839757 59.34318970025066 C 0.0 **** -0.24
19232 H 106.89050795026628 85.0662598296386 59.03559567090463 H 0.0 **** 0.06
19233 H 105.50212371235284 84.31511440200813 59.85805788818317 H 0.0 **** 0.06
19234 H 107.124405284678 83.59929189461337 60.0171900717782 H 0.0 **** 0.06
19235 H 106.25746830716753 83.50369029630406 58.46495778893444 H 0.0 **** 0.06
19236 C 78.42819490514515 63.72603991664699 101.9805620353485 C 0.0 **** -0.24
19237 H 77.37949679553205 64.00711868443423 102.07666159343822 H 0.0 **** 0.06
19238 H 78.99087401393388 64.56021360355149 101.5609447887442 H 0.0 **** 0.06
19239 H 78.51321055036342 62.862488330975275 101.32010901943946 H 0.0 **** 0.06
19240 H 78.82909317336345 63.473488042008306 102.9618373378768 H 0.0 **** 0.06
19241 C 13.922617760837113 34.99225696602632 84.22393912016213 C 0.0 **** -0.24
19242 H 14.531986150705308 34.88978976771739 85.12209099500944 H 0.0 **** 0.06
19243 H 13.342244892810442 35.91411865703968 84.28157236148752 H 0.0 **** 0.06
19244 H 13.247103567976836 34.141417184247786 84.14456479439266 H 0.0 **** 0.06
19245 H 14.570378198939721 35.0254112784242 83.34826149556727 H 0.0 **** 0.06
19246 C 64.24712782877444 39.75091623002652 0.26536304595086335 C 0.0 **** -0.24
19247 H 64.36649691554817 40.58342757639002 0.9577935009704674 H 0.0 **** 0.06
19248 H 65.22918961048973 39.39640022246772 -0.048587936246065055 H 0.0 **** 0.06
19249 H 63.68409024830453 40.082944959498434 -0.6074168717924522 H 0.0 **** 0.06
19250 H 63.708543792196906 38.94196552833438 0.7587625966002349 H 0.0 **** 0.06
19251 C 87.30829335978035 62.40411664155638 37.928687675118226 C 0.0 **** -0.24
19252 H 87.47037987215467 62.474128609670224 36.85273346716042 H 0.0 **** 0.06
19253 H 87.05277950882237 61.376780110146605 38.19112154205766 H 0.0 **** 0.06
19254 H 86.4921514277033 63.06616802379454 38.21608179730447 H 0.0 **** 0.06
19255 H 88.21730321690023 62.6984021201145 38.45288729628197 H 0.0 **** 0.06
19256 C 119.38830671521359 71.67230904153416 29.503048789538184 C 0.0 **** -0.24
19257 H 120.16397066469965 72.24608793530626 30.01054693332466 H 0.0 **** 0.06
19258 H 119.82848008124829 71.12284653131974 28.671468104378135 H 0.0 **** 0.06
19259 H 118.62304429774576 72.3505726146214 29.126618123834277 H 0.0 **** 0.06
19260 H 118.93870272000298 70.97095413066995 30.20544798295755 H 0.0 **** 0.06
19261 C 101.22920074722137 80.56722827517015 32.32195515371865 C 0.0 **** -0.24
19262 H 102.25079728432601 80.24217912267258 32.128671389504156 H 0.0 **** 0.06
19263 H 100.53126619133613 79.88889743640433 31.829888259036686 H 0.0 **** 0.06
19264 H 101.08920099081135 81.57669860244297 31.934609200966953 H 0.0 **** 0.06
19265 H 101.04418370401709 80.56174694809835 33.396323247805995 H 0.0 **** 0.06
19266 C 41.352554638561045 37.09216003230391 36.57147928465034 C 0.0 **** -0.24
19267 H 40.538886430501194 36.5222019771122 37.020282141616406 H 0.0 **** 0.06
19268 H 41.354674303611986 36.934343958949704 35.49267403896104 H 0.0 **** 0.06
19269 H 42.30252051619395 36.75915733807717 36.990078366191625 H 0.0 **** 0.06
19270 H 41.21418329446493 38.15180335339554 36.78419149434879 H 0.0 **** 0.06
19271 C 112.47430259012367 23.890366390490925 23.099052128740837 C 0.0 **** -0.24
19272 H 113.51030430653562 23.633656225618182 23.31743801792716 H 0.0 **** 0.06
19273 H 112.405238448034 24.9527813526732 22.863882487065126 H 0.0 **** 0.06
19274 H 111.85434915395163 23.670171116998482 23.96824941383605 H 0.0 **** 0.06
19275 H 112.12692965013932 23.305845969435026 22.248006322660203 H 0.0 **** 0.06
19276 C 38.571218912921054 8.720458264682264 65.14623466405783 C 0.0 **** -0.24
19277 H 37.861527531021515 8.951273406284344 65.94094572116501 H 0.0 **** 0.06
19278 H 39.108362004935216 7.804484116163621 65.39380450698596 H 0.0 **** 0.06
19279 H 39.28024839209503 9.541794654897132 65.04330823311327 H 0.0 **** 0.06
19280 H 38.03417477085849 8.584731894841184 64.20757281802312 H 0.0 **** 0.06
19281 C 64.48768989751824 62.43835358943153 111.60363627403203 C 0.0 **** -0.24
19282 H 63.74390518622937 62.52033695129941 110.81022702595669 H 0.0 **** 0.06
19283 H 64.49503360172827 61.41769278101202 111.9889060911689 H 0.0 **** 0.06
19284 H 64.23785723750001 63.129111025608694 112.40863745844277 H 0.0 **** 0.06
19285 H 65.47157341359565 62.684141505501856 111.20545466453166 H 0.0 **** 0.06
19286 C 39.00260442093949 101.02945927900683 98.72715233847521 C 0.0 **** -0.24
19287 H 38.330936430244975 100.94693822414348 99.58074734181133 H 0.0 **** 0.06
19288 H 38.42625760529572 100.96726220718159 97.80338014055434 H 0.0 **** 0.06
19289 H 39.72974627204488 100.21686379234495 98.75764064513018 H 0.0 **** 0.06
19290 H 39.52461856903349 101.98563846418165 98.76620019711152 H 0.0 **** 0.06
19291 C 60.032055491285035 59.17920426533741 45.57807901508954 C 0.0 **** -0.24
19292 H 60.93004875357215 58.899205227918635 46.129104229337116 H 0.0 **** 0.06
19293 H 59.8612456831641 58.462723610908945 44.77367321379651 H 0.0 **** 0.06
19294 H 60.16005698473671 60.17565718339417 45.15697184682713 H 0.0 **** 0.06
19295 H 59.17699673123553 59.177219308064615 46.25353490940567 H 0.0 **** 0.06
19296 C 105.99437574690822 41.3276478132865 50.57667097343594 C 0.0 **** -0.24
19297 H 105.88861472500395 40.43563243837959 51.19294220138892 H 0.0 **** 0.06
19298 H 105.08481352589808 41.924380859002795 50.642802272511176 H 0.0 **** 0.06
19299 H 106.16215662311234 41.03513180949946 49.539810745253845 H 0.0 **** 0.06
19300 H 106.84145230443457 41.91563543526499 50.92947115883845 H 0.0 **** 0.06
19301 C 17.45049307090912 23.19319413027938 75.76798149080085 C 0.0 **** -0.24
19302 H 17.02975868344697 23.54515237950102 74.82650284047108 H 0.0 **** 0.06
19303 H 17.32712905425626 23.962666504406798 76.53069622526257 H 0.0 **** 0.06
19304 H 18.510834030934774 22.980746895683183 75.63456746223679 H 0.0 **** 0.06
19305 H 16.93309260642843 22.285494956545676 76.08026046253045 H 0.0 **** 0.06
19306 C 89.32689045229696 76.19844048463605 49.86139105668133 C 0.0 **** -0.24
19307 H 89.3797878305601 77.16070049242697 49.35358637895243 H 0.0 **** 0.06
19308 H 90.30241762769484 75.71477994621972 49.82693429407476 H 0.0 **** 0.06
19309 H 88.58905357841559 75.56618118422006 49.36630811590179 H 0.0 **** 0.06
19310 H 89.03387078381061 76.3522083506356 50.90048879467408 H 0.0 **** 0.06
19311 C 78.16302553734474 21.026308041429047 97.6148478112635 C 0.0 **** -0.24
19312 H 77.60528703331894 20.132140527426543 97.33718195975885 H 0.0 **** 0.06
19313 H 79.15699388697593 20.741344577124437 97.95984038848115 H 0.0 **** 0.06
19314 H 77.63630518322273 21.548168791268154 98.41425208658416 H 0.0 **** 0.06
19315 H 78.25088284767492 21.682506776081595 96.74950199070221 H 0.0 **** 0.06
19316 C 116.43406558630446 89.26449302453648 58.662919397430414 C 0.0 **** -0.24
19317 H 117.36860047669646 88.87562917563088 58.26060300249378 H 0.0 **** 0.06
19318 H 116.57614397330072 89.54218155009158 59.707716979831275 H 0.0 **** 0.06
19319 H 115.66088921991987 88.49962162479187 58.591419967257536 H 0.0 **** 0.06
19320 H 116.13049935872148 90.14190726173646 58.092274231464614 H 0.0 **** 0.06
19321 C 106.5160578108071 35.74822119217686 114.14648286082867 C 0.0 **** -0.24
19322 H 106.34275433479326 36.23115687192981 113.18414132391908 H 0.0 **** 0.06
19323 H 107.35779124975232 35.060919864561754 114.05989851909914 H 0.0 **** 0.06
19324 H 105.62379715679907 35.1962012015867 114.4414963732137 H 0.0 **** 0.06
19325 H 106.74037855312193 36.504727600219866 114.89799822928019 H 0.0 **** 0.06
19326 C 112.79759060124854 97.7442236971697 67.52330724928811 C 0.0 **** -0.24
19327 H 113.61840435887021 97.84515528356764 66.81298567404554 H 0.0 **** 0.06
19328 H 113.18937302352708 97.79243460722626 68.53978126415211 H 0.0 **** 0.06
19329 H 112.30064639428288 96.78670723068649 67.37006641076107 H 0.0 **** 0.06
19330 H 112.08385683785356 98.55270375037259 67.37095192256118 H 0.0 **** 0.06
19331 C 27.282626136699903 7.3201881630488685 25.21197863878649 C 0.0 **** -0.24
19332 H 26.511075351426342 7.2044343496730505 24.450742424907162 H 0.0 **** 0.06
19333 H 28.23636362434985 7.541598543454796 24.732453452877223 H 0.0 **** 0.06
19334 H 27.368031727958865 6.396262207480817 25.784619786805308 H 0.0 **** 0.06
19335 H 27.01223378424382 8.13805995031666 25.880143936424588 H 0.0 **** 0.06
19336 C 94.91139007341536 53.84867360391996 19.157149450916958 C 0.0 **** -0.24
19337 H 94.86332494472603 53.210791868898184 20.040196342778685 H 0.0 **** 0.06
19338 H 93.90510499732784 54.01106740146554 18.770347490194357 H 0.0 **** 0.06
19339 H 95.52103693338742 53.3669380054194 18.39345541192617 H 0.0 **** 0.06
19340 H 95.3571025149364 54.806848106056066 19.426617895579646 H 0.0 **** 0.06
19341 C 73.48667304998833 116.82172110268233 59.45507267810719 C 0.0 **** -0.24
19342 H 74.0000029488927 117.49725042428287 58.76991229842154 H 0.0 **** 0.06
19343 H 73.78149950163356 115.7943703169854 59.24086982061353 H 0.0 **** 0.06
19344 H 72.40917460566936 116.92640203591888 59.328842244816734 H 0.0 **** 0.06
19345 H 73.75779862354557 117.07155062935101 60.481433885985545 H 0.0 **** 0.06
19346 C 116.14374572623893 100.91618502267784 99.90360323276067 C 0.0 **** -0.24
19347 H 116.29521591859347 99.9199952896162 100.32134720076573 H 0.0 **** 0.06
19348 H 116.15127847780997 101.65236350532237 100.70860928048856 H 0.0 **** 0.06
19349 H 115.18311413715662 100.95093507053471 99.38885420401434 H 0.0 **** 0.06
19350 H 116.94370141254879 101.13992563842811 99.19781348548872 H 0.0 **** 0.06
19351 C 42.887439952790146 52.076425914260994 7.703276149876331 C 0.0 **** -0.24
19352 H 43.03672274342057 52.97167941340041 7.098448875298658 H 0.0 **** 0.06
19353 H 43.72528481983261 51.959397122588484 8.391299712624033 H 0.0 **** 0.06
19354 H 42.826049171723525 51.20522293627192 7.052022278439182 H 0.0 **** 0.06
19355 H 41.96151952144032 52.17241425629442 8.270381717503255 H 0.0 **** 0.06
19356 C 47.53603252648119 74.34744607099645 52.416170279214924 C 0.0 **** -0.24
19357 H 47.04681645841626 73.40595707312934 52.66632472426778 H 0.0 **** 0.06
19358 H 48.51319539805942 74.3884291592721 52.89807200611753 H 0.0 **** 0.06
19359 H 46.92293452379948 75.1781949418334 52.76506892201104 H 0.0 **** 0.06
19360 H 47.660414491283746 74.4166975730871 51.33560631844483 H 0.0 **** 0.06
19361 C 55.23708989628896 68.71423397453736 26.933641754748095 C 0.0 **** -0.24
19362 H 54.20292321698812 68.6470327489186 27.27082773019646 H 0.0 **** 0.06
19363 H 55.52290354515724 67.77729975704568 26.45392095425126 H 0.0 **** 0.06
19364 H 55.88683431097996 68.89749799901875 27.789123837691278 H 0.0 **** 0.06
19365 H 55.33384892057868 69.5318602967551 26.22047282137217 H 0.0 **** 0.06
19366 C 17.368039902230667 118.99691850786867 37.189141145955915 C 0.0 **** -0.24
19367 H 18.14190860972168 119.5742990802228 36.681896523244454 H 0.0 **** 0.06
19368 H 17.062078884926382 118.16407204369678 36.55538583352961 H 0.0 **** 0.06
19369 H 16.509626985866774 119.63793858479612 37.388318501253906 H 0.0 **** 0.06
19370 H 17.76187305964647 118.61274901847817 38.12995959895577 H 0.0 **** 0.06
19371 C 115.87193675430902 18.348499221675354 59.61272557255148 C 0.0 **** -0.24
19372 H 115.65583395104397 18.570812931781518 60.6573572213066 H 0.0 **** 0.06
19373 H 116.94558073771617 18.423730598397583 59.439954126476664 H 0.0 **** 0.06
19374 H 115.34965444284038 19.06051062501342 58.97431815305049 H 0.0 **** 0.06
19375 H 115.53500161668785 17.337713775937203 59.38056898557403 H 0.0 **** 0.06
19376 C 53.68866855783989 17.394765205101322 27.762258743575217 C 0.0 **** -0.24
19377 H 53.01229415324002 18.137362277968876 28.185770717452257 H 0.0 **** 0.06
19378 H 54.69913632219669 17.5754914218178 28.12713816320172 H 0.0 **** 0.06
19379 H 53.67492110926497 17.470444515309396 26.675291522141293 H 0.0 **** 0.06
19380 H 53.366435501974024 16.397739270678557 28.062425808630053 H 0.0 **** 0.06
19381 C 103.15824493132874 62.742311518633926 39.92420703208947 C 0.0 **** -0.24
19382 H 103.0784406777162 63.559183374178474 40.64237404243346 H 0.0 **** 0.06
19383 H 102.15886805591569 62.40689771034516 39.643399840377526 H 0.0 **** 0.06
19384 H 103.70553003656096 61.91556978684571 40.376141988905104 H 0.0 **** 0.06
19385 H 103.68940532337817 63.089133378999236 39.03824296832592 H 0.0 **** 0.06
19386 C 25.743430292118624 89.61850608145403 29.47182953599519 C 0.0 **** -0.24
19387 H 25.514527655797558 90.22218237415046 28.593539349260205 H 0.0 **** 0.06
19388 H 24.903578921093683 88.95717069393731 29.6861968385725 H 0.0 **** 0.06
19389 H 25.920372106919828 90.2712569250474 30.326162031859276 H 0.0 **** 0.06
19390 H 26.635735764343387 89.02251571945561 29.27943260253791 H 0.0 **** 0.06
19391 C 69.64689822145402 94.15262953698272 101.68690808862303 C 0.0 **** -0.24
19392 H 69.79157538387574 94.89030636158455 100.89735912142885 H 0.0 **** 0.06
19393 H 69.76147959250557 93.15043853273153 101.2729860295604 H 0.0 **** 0.06
19394 H 68.64619176597085 94.26218003839335 102.10511069283001 H 0.0 **** 0.06
19395 H 70.38768371524424 94.31039485074095 102.47024967512749 H 0.0 **** 0.06
19396 C 83.4184113304882 81.2291074707245 14.038735256540548 C 0.0 **** -0.24
19397 H 83.38657509998558 80.47733466065137 13.249458193013595 H 0.0 **** 0.06
19398 H 82.64710027072826 81.01177059671289 14.777354942068484 H 0.0 **** 0.06
19399 H 83.24140950031477 82.2149159308861 13.607960146751026 H 0.0 **** 0.06
19400 H 84.39653767374881 81.2118494997255 14.517411598199288 H 0.0 **** 0.06
19401 C 24.073884288068037 45.67111084139029 83.97621567653158 C 0.0 **** -0.24
19402 H 24.301432891635947 44.68822809657047 84.38682398053842 H 0.0 **** 0.06
19403 H 23.43525575803178 46.21623505364167 84.6707977715416 H 0.0 **** 0.06
19404 H 23.558234575877833 45.556341626971204 83.0217479501701 H 0.0 **** 0.06
19405 H 25.00068703732559 46.2249672359938 83.82299704801628 H 0.0 **** 0.06
19406 C 75.14121234064885 36.80421786582923 119.17065229089646 C 0.0 **** -0.24
19407 H 75.42614154950044 35.90912864395392 118.61866071292458 H 0.0 **** 0.06
19408 H 74.14058767372441 36.6733657799532 119.5827094957397 H 0.0 **** 0.06
19409 H 75.14856039800222 37.66259457737846 118.50010216811167 H 0.0 **** 0.06
19410 H 75.84986349000084 36.97108889387863 119.98233127888209 H 0.0 **** 0.06
19411 C 98.1165446702156 100.54707631032468 57.4646586748491 C 0.0 **** -0.24
19412 H 97.72029846357438 99.55021622634905 57.27196712613952 H 0.0 **** 0.06
19413 H 97.49956545266897 101.04476708715191 58.21288368802028 H 0.0 **** 0.06
19414 H 98.10485918635115 101.12721903540665 56.540940048635186 H 0.0 **** 0.06
19415 H 99.13953658849582 100.46690434187164 57.82989835182013 H 0.0 **** 0.06
19416 C 100.57380241503236 10.221730871007821 87.98867001870985 C 0.0 **** -0.24
19417 H 101.2718698193928 10.826173187275202 87.40904639706773 H 0.0 **** 0.06
19418 H 99.84321966063607 10.873147697598455 88.47025821726581 H 0.0 **** 0.06
19419 H 101.12119604468134 9.66468172767901 88.74862104345081 H 0.0 **** 0.06
19420 H 100.05978729712584 9.525786846820012 87.3265503627172 H 0.0 **** 0.06
19421 C 17.613738649359902 84.04527360990494 43.83740910663391 C 0.0 **** -0.24
19422 H 18.615699684874755 83.66677971162451 44.04195893601678 H 0.0 **** 0.06
19423 H 16.91868031682452 83.20859423635031 43.761443889156794 H 0.0 **** 0.06
19424 H 17.619506662507433 84.59971427826298 42.89842536795152 H 0.0 **** 0.06
19425 H 17.301720708526886 84.70475957153104 44.647667237537746 H 0.0 **** 0.06
19426 C 77.32137063381754 103.42780007296417 105.41814593694033 C 0.0 **** -0.24
19427 H 76.33379497393065 103.00898810826283 105.22205911392359 H 0.0 **** 0.06
19428 H 77.32998054859763 103.8910176527703 106.40515278219763 H 0.0 **** 0.06
19429 H 77.55531038595012 104.17667804613481 104.66187279250866 H 0.0 **** 0.06
19430 H 78.06589367535054 102.63238138911638 105.38306468019925 H 0.0 **** 0.06
19431 C 79.8880223587091 109.04156058793421 115.00880448010889 C 0.0 **** -0.24
19432 H 79.52610192792704 109.1060211232247 116.03541766163988 H 0.0 **** 0.06
19433 H 79.83348017222212 110.02550422475187 114.54273558840731 H 0.0 **** 0.06
19434 H 79.27041154972636 108.3393905730754 114.44937686960378 H 0.0 **** 0.06
19435 H 80.92176592284872 108.69627904654394 115.0086796804838 H 0.0 **** 0.06
19436 C 61.76694189404588 30.281685942108567 87.40256962637218 C 0.0 **** -0.24
19437 H 61.65489049329157 30.458696989772875 88.47215211041737 H 0.0 **** 0.06
19438 H 62.79220476094944 29.977655083117526 87.18995387270047 H 0.0 **** 0.06
19439 H 61.539319606845446 31.19774104379664 86.85749873885396 H 0.0 **** 0.06
19440 H 61.08221978399187 29.493658497276442 87.09115601815478 H 0.0 **** 0.06
19441 C 98.39633291176352 117.1694721301057 89.58751666548375 C 0.0 **** -0.24
19442 H 98.93812851831893 117.53562843840797 88.71528548953376 H 0.0 **** 0.06
19443 H 98.74721976657463 116.1682921763101 89.83896104903317 H 0.0 **** 0.06
19444 H 97.32947692000619 117.13600179966465 89.36495386582519 H 0.0 **** 0.06
19445 H 98.57050644215428 117.83796610603997 90.43086625754282 H 0.0 **** 0.06
19446 C 72.81091168648362 33.906028287903524 1.4317244172957828 C 0.0 **** -0.24
19447 H 73.43185136333662 33.291136045506136 2.083259205361742 H 0.0 **** 0.06
19448 H 72.17093562899453 33.263535800258154 0.8266911978955136 H 0.0 **** 0.06
19449 H 73.44840591166542 34.50210813701193 0.7795787323954073 H 0.0 **** 0.06
19450 H 72.19284769524103 34.56758810913118 2.038702698568386 H 0.0 **** 0.06
19451 C 10.198380847133585 52.02889094432077 24.687676456398407 C 0.0 **** -0.24
19452 H 9.81693849118258 51.18373394520174 25.261533198609328 H 0.0 **** 0.06
19453 H 10.873828528878573 52.615410379686054 25.310517137290475 H 0.0 **** 0.06
19454 H 9.36545854773706 52.653961090647755 24.36493830565837 H 0.0 **** 0.06
19455 H 10.73619677227271 51.660426274590506 23.81452875537647 H 0.0 **** 0.06
19456 C 83.25881921646632 15.826275365377683 82.9108495086719 C 0.0 **** -0.24
19457 H 83.3096766545676 16.62278958854256 82.16860579279347 H 0.0 **** 0.06
19458 H 83.0249155815566 16.253613085921643 83.88647225882457 H 0.0 **** 0.06
19459 H 84.21878201965424 15.311733733562733 82.95973188177146 H 0.0 **** 0.06
19460 H 82.47996078200455 15.11774012168462 82.6293811027453 H 0.0 **** 0.06
19461 C 114.02447068607924 42.676876846858704 19.219680334573468 C 0.0 **** -0.24
19462 H 114.33399381604113 43.42067499717664 18.4847191558234 H 0.0 **** 0.06
19463 H 114.61329701904377 42.799342555899656 20.128689038467854 H 0.0 **** 0.06
19464 H 114.1836629829902 41.67804230114527 18.814175148984873 H 0.0 **** 0.06
19465 H 112.9673936860811 42.81275418474106 19.449777562152377 H 0.0 **** 0.06
19466 C 10.712892263968541 115.42822414901917 111.79964735710146 C 0.0 **** -0.24
19467 H 11.36184863747549 115.59299226616781 112.65921537009905 H 0.0 **** 0.06
19468 H 10.737123524970386 114.37384363441328 111.5230144847036 H 0.0 **** 0.06
19469 H 11.059564098820886 116.03190742754697 110.96133940247944 H 0.0 **** 0.06
19470 H 9.692005661619561 115.71318287133278 112.05507881887175 H 0.0 **** 0.06
19471 C 101.44180161216576 71.0052307085611 21.04083259451236 C 0.0 **** -0.24
19472 H 101.43660186456833 70.23675932073806 21.813955371639757 H 0.0 **** 0.06
19473 H 101.8917635246573 70.60402768548565 20.132452405651442 H 0.0 **** 0.06
19474 H 102.02129937427247 71.86197448287541 21.385645025490817 H 0.0 **** 0.06
19475 H 100.41891649134644 71.31843905361848 20.83328583818429 H 0.0 **** 0.06
19476 C 63.5635992660207 40.72416343038958 92.76487593545895 C 0.0 **** -0.24
19477 H 64.02354577174773 41.63558598816627 92.38194603941133 H 0.0 **** 0.06
19478 H 62.575034637975364 40.6022567574246 92.32131093326413 H 0.0 **** 0.06
19479 H 63.471486653633434 40.79243542395213 93.84868464233651 H 0.0 **** 0.06
19480 H 64.1858831883174 39.86733150937576 92.50626828288239 H 0.0 **** 0.06
19481 C 121.7627005476009 61.00456727870722 121.78798464124984 C 0.0 **** -0.24
19482 H 121.76215535205057 59.91949042370107 121.89298020340941 H 0.0 **** 0.06
19483 H 121.05802137957934 61.438673006547866 122.49765121553098 H 0.0 **** 0.06
19484 H 121.46834077531705 61.271698124801155 120.77317946298982 H 0.0 **** 0.06
19485 H 122.76328704071022 61.387422210185655 121.98828413574576 H 0.0 **** 0.06
19486 C 85.06541735419219 71.71533568234736 34.201543028237325 C 0.0 **** -0.24
19487 H 84.5908561990855 70.76584232253333 33.95548987640325 H 0.0 **** 0.06
19488 H 86.0810130197286 71.72669838013928 33.804035110840545 H 0.0 **** 0.06
19489 H 85.09692323629889 71.83705552705015 35.284156428501745 H 0.0 **** 0.06
19490 H 84.49437656445679 72.53226574688972 33.76091530770512 H 0.0 **** 0.06
19491 C 106.04762721218356 11.12380447221625 93.00130643928568 C 0.0 **** -0.24
19492 H 105.52283868834769 11.973375620839704 93.43873188524137 H 0.0 **** 0.06
19493 H 105.46924212371135 10.73095592326851 92.16516600258092 H 0.0 **** 0.06
19494 H 106.1712237332955 10.346328716057911 93.75624654647225 H 0.0 **** 0.06
19495 H 107.02767132062655 11.44545723939936 92.64707452975935 H 0.0 **** 0.06
19496 C 33.84196936961994 69.95677385344052 40.72129771166777 C 0.0 **** -0.24
19497 H 33.62281919583897 70.94018374028411 40.30430445613649 H 0.0 **** 0.06
19498 H 34.765269279936255 70.00550517598222 41.29902056200979 H 0.0 **** 0.06
19499 H 33.95829583964357 69.23694783928542 39.91045009994593 H 0.0 **** 0.06
19500 H 33.022653628405514 69.64647312446775 41.36905017194891 H 0.0 **** 0.06
19501 C 106.57489807056447 91.05700766433446 62.18071293246714 C 0.0 **** -0.24
19502 H 105.62922151173382 91.56994184239238 62.00433400189413 H 0.0 **** 0.06
19503 H 106.84323412481189 91.14343592013836 63.23425083915752 H 0.0 **** 0.06
19504 H 107.35296951534178 91.5119280265788 61.56835651920927 H 0.0 **** 0.06
19505 H 106.47177972736591 90.00442945059359 61.9165390243758 H 0.0 **** 0.06
19506 C 91.64150835361477 38.53902029535043 15.768727362210626 C 0.0 **** -0.24
19507 H 92.69733366052867 38.280469694962484 15.691788387288938 H 0.0 **** 0.06
19508 H 91.44279119931628 38.96639099361543 16.75203248231358 H 0.0 **** 0.06
19509 H 91.0367664799403 37.642243023515334 15.634589710376815 H 0.0 **** 0.06
19510 H 91.387757594341 39.26576215986701 14.997766352781554 H 0.0 **** 0.06
19511 C 69.70406441861718 31.94083168560376 41.138699348749036 C 0.0 **** -0.24
19512 H 70.28301695391113 31.2811894043271 41.785513993043146 H 0.0 **** 0.06
19513 H 69.97354584869677 31.758663258897805 40.09866256202111 H 0.0 **** 0.06
19514 H 69.91950096526847 32.97860485461838 41.39385830871911 H 0.0 **** 0.06
19515 H 68.6415132388725 31.744867893216693 41.28011813610245 H 0.0 **** 0.06
19516 C 59.548417654992875 32.79539682308504 70.24737414846874 C 0.0 **** -0.24
19517 H 59.09373839462992 32.659261017501365 71.22817223842173 H 0.0 **** 0.06
19518 H 59.71236022457231 31.821703544502242 69.78447737276377 H 0.0 **** 0.06
19519 H 60.50304323657883 33.31036710289888 70.35785388795449 H 0.0 **** 0.06
19520 H 58.8854380201023 33.389852666611574 69.61909765056538 H 0.0 **** 0.06
19521 C 112.94828684963474 120.29352396071332 15.417684536085318 C 0.0 **** -0.24
19522 H 112.98244648198599 120.52484824315295 16.48200793118258 H 0.0 **** 0.06
19523 H 112.05069508626713 120.73001394221437 14.979359697878408 H 0.0 **** 0.06
19524 H 112.93027131561851 119.21148767483965 15.281636268632809 H 0.0 **** 0.06
19525 H 113.83043823207265 120.70566731768812 14.928163446037644 H 0.0 **** 0.06
19526 C 90.57696192255321 117.78426851397177 90.0124963939951 C 0.0 **** -0.24
19527 H 90.32187732819409 118.02725462979194 91.0446469649379 H 0.0 **** 0.06
19528 H 91.48952122486213 117.18839830819513 89.99468210133068 H 0.0 **** 0.06
19529 H 90.73177537541312 118.70524268337067 89.45072910833801 H 0.0 **** 0.06
19530 H 89.76278586338628 117.21634650150772 89.56111393902398 H 0.0 **** 0.06
19531 C 61.933662855795056 59.36760515301714 16.993282075920213 C 0.0 **** -0.24
19532 H 62.93179195726598 59.456606415011265 17.422140095857802 H 0.0 **** 0.06
19533 H 61.98040133385056 59.56596694454694 15.922098948965957 H 0.0 **** 0.06
19534 H 61.26820023705891 60.08877004455195 17.46781429956358 H 0.0 **** 0.06
19535 H 61.556169435976436 58.358297443458895 17.160215740607644 H 0.0 **** 0.06
19536 C 29.220823463648635 102.15234432618149 51.81029680978281 C 0.0 **** -0.24
19537 H 30.16405066938399 101.94718865453527 52.31676569095626 H 0.0 **** 0.06
19538 H 29.148330202171465 103.21951663048387 51.59643183749287 H 0.0 **** 0.06
19539 H 28.391226867966957 101.85319264068102 52.45204673618241 H 0.0 **** 0.06
19540 H 29.17923036148187 101.59006912929101 50.87750651224394 H 0.0 **** 0.06
19541 C 18.84412997353374 14.70471537252672 46.87806122404447 C 0.0 **** -0.24
19542 H 19.23509415537316 14.916152181496145 45.883069473497585 H 0.0 **** 0.06
19543 H 18.045335996432726 15.409075391375993 47.11233740622333 H 0.0 **** 0.06
19544 H 19.644095396214567 14.804686177291302 47.61161441659931 H 0.0 **** 0.06
19545 H 18.450898738100562 13.688151775747386 46.90481592915228 H 0.0 **** 0.06
19546 C 19.51121176205362 24.34843666713425 19.23168887263745 C 0.0 **** -0.24
19547 H 20.246922879424858 23.81325521411972 18.630891799104575 H 0.0 **** 0.06
19548 H 19.24077088777733 23.74323825527395 20.097805969901856 H 0.0 **** 0.06
19549 H 18.622120766491776 24.539410353594263 18.630581235083923 H 0.0 **** 0.06
19550 H 19.934140879176198 25.294847725400416 19.566991926521837 H 0.0 **** 0.06
19551 C 26.0209653720091 61.556478641382135 109.40999516757444 C 0.0 **** -0.24
19552 H 25.82162097534993 60.50367772576484 109.60867114689162 H 0.0 **** 0.06
19553 H 25.870783637355288 61.760499780729624 108.3500720933242 H 0.0 **** 0.06
19554 H 27.051265755440852 61.78885072723546 109.68246453233112 H 0.0 **** 0.06
19555 H 25.342155559587496 62.172590367288315 109.99854137165124 H 0.0 **** 0.06
19556 C 46.5700717552441 92.02253215636375 48.85873148552088 C 0.0 **** -0.24
19557 H 46.63220328280423 92.28655365954799 47.80300071961523 H 0.0 **** 0.06
19558 H 45.921376222315104 91.15462257824746 48.97795484385813 H 0.0 **** 0.06
19559 H 46.16128311412356 92.86264319973998 49.419619510643656 H 0.0 **** 0.06
19560 H 47.56638498712945 91.78642274803485 49.23233476823924 H 0.0 **** 0.06
19561 C 26.740911867102895 72.56187812763253 82.90409137503872 C 0.0 **** -0.24
19562 H 26.794352649917677 73.50988700962293 83.44047690561118 H 0.0 **** 0.06
19563 H 26.708551769101625 71.74090138346162 83.6204614931691 H 0.0 **** 0.06
19564 H 27.618744542371026 72.45501696538227 82.26721965465046 H 0.0 **** 0.06
19565 H 25.840880849737808 72.54319405662758 82.2889424158821 H 0.0 **** 0.06
19566 C 91.08074514611377 5.991201430036877 59.97022156092397 C 0.0 **** -0.24
19567 H 91.19085179347331 5.42493792247614 59.045278153884404 H 0.0 **** 0.06
19568 H 91.3865323339181 5.371220960669557 60.8130682563225 H 0.0 **** 0.06
19569 H 90.03940247944664 6.285170470367589 60.09373540545922 H 0.0 **** 0.06
19570 H 91.70797565882907 6.881932995989931 59.92724107764912 H 0.0 **** 0.06
19571 C 17.480770761704974 72.5375612056906 6.404323690549603 C 0.0 **** -0.24
19572 H 16.943760020935287 73.15889364829061 7.12131784126754 H 0.0 **** 0.06
19573 H 18.275128959539956 71.99485628413112 6.918855197614363 H 0.0 **** 0.06
19574 H 17.91535592435153 73.1701363406512 5.629796344999107 H 0.0 **** 0.06
19575 H 16.790441859988476 71.82794033932984 5.94975984795434 H 0.0 **** 0.06
19576 C 94.01152624960181 59.52386917927285 32.062109582751546 C 0.0 **** -0.24
19577 H 93.13257293263797 59.28077257268376 31.464601200183836 H 0.0 **** 0.06
19578 H 94.89030895887379 59.550988654851125 31.418770212735282 H 0.0 **** 0.06
19579 H 94.14720257635668 58.76539427099121 32.83346871411081 H 0.0 **** 0.06
19580 H 93.8724048582223 60.498106611350636 32.53065924885584 H 0.0 **** 0.06
19581 C 3.638159788962213 3.545394889062294 75.62482829003221 C 0.0 **** -0.24
19582 H 2.6649235640262816 3.615422368983701 75.13999380380884 H 0.0 **** 0.06
19583 H 3.642657262485244 4.163030020727234 76.5232367580549 H 0.0 **** 0.06
19584 H 4.411511230063752 3.8950493882396984 74.94002724257896 H 0.0 **** 0.06
19585 H 3.835672800658074 2.5074124260575275 75.89625278499696 H 0.0 **** 0.06
19586 C 27.58217136484808 17.772237957465137 116.58950031621238 C 0.0 **** -0.24
19587 H 27.945366894834805 16.744753971672537 116.59754845939746 H 0.0 **** 0.06
19588 H 26.49628308888947 17.773889490976273 116.49588918712149 H 0.0 **** 0.06
19589 H 28.021076720719265 18.305184122621228 115.74622539963755 H 0.0 **** 0.06
19590 H 27.867916995802375 18.26528365052792 117.51940600182617 H 0.0 **** 0.06
19591 C 90.27077884238588 5.947421532007382 78.09520601756401 C 0.0 **** -0.24
19592 H 90.2082790363666 5.226560340054135 77.2801501716342 H 0.0 **** 0.06
19593 H 91.31758587799322 6.162493277183188 78.31148441372613 H 0.0 **** 0.06
19594 H 89.79406124678562 5.532776160308458 78.983273393991 H 0.0 **** 0.06
19595 H 89.76222714930054 6.866819786733771 77.80590664581263 H 0.0 **** 0.06
19596 C 76.7306121883152 30.66087455308596 70.67133810884565 C 0.0 **** -0.24
19597 H 77.40504153931107 31.07153299343541 69.91961152820559 H 0.0 **** 0.06
19598 H 75.95120161509746 30.078538483381408 70.18075076373628 H 0.0 **** 0.06
19599 H 76.27580322703866 31.476330402020835 71.23505149277531 H 0.0 **** 0.06
19600 H 77.29185846637338 30.018772955613542 71.3502013391784 H 0.0 **** 0.06
19601 C 62.270570922011466 89.72322106454249 47.47510613446423 C 0.0 **** -0.24
19602 H 63.1799127879116 90.32005731802082 47.40348913564729 H 0.0 **** 0.06
19603 H 61.45208649946212 90.2501798302502 46.985332917791 H 0.0 **** 0.06
19604 H 62.02375008441961 89.56316197850407 48.52512791848945 H 0.0 **** 0.06
19605 H 62.42841746714395 88.76092929490085 46.98801358502836 H 0.0 **** 0.06
19606 C 36.0871436730662 21.030930387087324 122.31831704278206 C 0.0 **** -0.24
19607 H 36.72276377157435 21.18554953655658 121.44672762712621 H 0.0 **** 0.06
19608 H 36.16746619851062 19.994845575089954 122.64798158620428 H 0.0 **** 0.06
19609 H 35.05172212554616 21.249805767999632 122.05477958617931 H 0.0 **** 0.06
19610 H 36.40471924137615 21.694657408355837 123.12273754836045 H 0.0 **** 0.06
19611 C 70.24096810196494 68.99503455148587 121.05797033847114 C 0.0 **** -0.24
19612 H 70.35948385943146 69.99559065357369 121.47353335046715 H 0.0 **** 0.06
19613 H 69.57629941467036 69.03691297589353 120.19474621012733 H 0.0 **** 0.06
19614 H 69.81305735788573 68.33708693341202 121.81451674862403 H 0.0 **** 0.06
19615 H 71.21329881136404 68.61137574783089 120.75023018868369 H 0.0 **** 0.06
19616 C 94.51773142718909 115.93854198370826 90.47957674261079 C 0.0 **** -0.24
19617 H 94.2772588945775 116.97105318226612 90.22650618602506 H 0.0 **** 0.06
19618 H 95.40939794303958 115.91591389910684 91.10693149234532 H 0.0 **** 0.06
19619 H 94.7022466385877 115.37360102415732 89.56566701149751 H 0.0 **** 0.06
19620 H 93.68212622296687 115.49260523286374 91.01920670547895 H 0.0 **** 0.06
19621 C 120.92945325941585 32.473012119469495 112.76496424431662 C 0.0 **** -0.24
19622 H 120.26013857137912 32.690631342822215 111.93327211818786 H 0.0 **** 0.06
19623 H 121.03223609451143 33.359250276653846 113.39126509380336 H 0.0 **** 0.06
19624 H 121.90796512711569 32.18566149002473 112.37830631954446 H 0.0 **** 0.06
19625 H 120.51830623265677 31.65498998075868 113.35711293616785 H 0.0 **** 0.06
19626 C 28.104091639539718 9.054283104765545 67.06826893671368 C 0.0 **** -0.24
19627 H 27.283588475372824 8.890711780049259 67.76743855013882 H 0.0 **** 0.06
19628 H 28.585312934933256 8.102708741314387 66.84415204774174 H 0.0 **** 0.06
19629 H 28.83017107802482 9.733222089365384 67.5138624234614 H 0.0 **** 0.06
19630 H 27.714911738314242 9.490158458074916 66.14808644691715 H 0.0 **** 0.06
19631 C 65.34187896542207 119.12349396539972 118.51594468724463 C 0.0 **** -0.24
19632 H 66.16945201825368 119.70315488722505 118.1056615544602 H 0.0 **** 0.06
19633 H 65.05658526699364 118.34555812580572 117.80804254573702 H 0.0 **** 0.06
19634 H 64.49113540650075 119.78291775768824 118.69466212945224 H 0.0 **** 0.06
19635 H 65.6498945354447 118.66564394660327 119.45637009227912 H 0.0 **** 0.06
19636 C 2.2353296191625276 74.42213751267445 103.94966429555672 C 0.0 **** -0.24
19637 H 2.9458997339731923 73.65394077592236 103.64440207825953 H 0.0 **** 0.06
19638 H 1.959975120584673 75.02587485873778 103.08441560603262 H 0.0 **** 0.06
19639 H 2.691440033669963 75.05819633633126 104.70790473250611 H 0.0 **** 0.06
19640 H 1.343967441148834 73.94914897438383 104.3609007215392 H 0.0 **** 0.06
19641 C 66.09812484775719 112.99593429201613 34.47044191735506 C 0.0 **** -0.24
19642 H 66.6136547976848 112.51763938112428 35.30270745671481 H 0.0 **** 0.06
19643 H 65.0411980937379 112.73273581278127 34.49776354387916 H 0.0 **** 0.06
19644 H 66.5333355915948 112.65598392632862 33.53050548010532 H 0.0 **** 0.06
19645 H 66.20627737694554 114.07736186187128 34.55042655109901 H 0.0 **** 0.06
19646 C 56.16000300410792 18.47547562036459 58.12695745784214 C 0.0 **** -0.24
19647 H 55.57530524544799 19.23246344928927 58.65003117117578 H 0.0 **** 0.06
19648 H 55.487082955586146 17.780784870402798 57.624151822985795 H 0.0 **** 0.06
19649 H 56.774799014877146 17.93223081231139 58.84403906257731 H 0.0 **** 0.06
19650 H 56.802359153197926 18.958053955149595 57.38925497918291 H 0.0 **** 0.06
19651 C 54.63119389710914 94.273899293521 3.8454520516218906 C 0.0 **** -0.24
19652 H 54.161568912205496 93.31564634338815 4.064053748021308 H 0.0 **** 0.06
19653 H 55.12991998561276 94.64643060909094 4.740438006379293 H 0.0 **** 0.06
19654 H 53.87028593199349 94.98791252584275 3.5300787642790965 H 0.0 **** 0.06
19655 H 55.36310083897854 94.14668977426382 3.0481427852410263 H 0.0 **** 0.06
19656 C 111.18850984449688 79.07374038755214 88.85040123354497 C 0.0 **** -0.24
19657 H 110.92291915883877 78.7161972929436 89.84513971170674 H 0.0 **** 0.06
19658 H 112.26179939188489 79.2581597111442 88.80502298883764 H 0.0 **** 0.06
19659 H 110.65013618093255 79.99810954585823 88.64164162399945 H 0.0 **** 0.06
19660 H 110.91786941820135 78.32047823281505 88.10934987911432 H 0.0 **** 0.06
19661 C 0.47581891131278553 111.37386363880049 110.8076295978941 C 0.0 **** -0.24
19662 H 1.0307935711440024 112.12828591928472 111.36576068448318 H 0.0 **** 0.06
19663 H 0.8992411657839909 110.38952364985695 111.00750083873876 H 0.0 **** 0.06
19664 H 0.5435895888276434 111.58946963227157 109.74086234404317 H 0.0 **** 0.06
19665 H -0.5690955778857898 111.39025020264053 111.11674817674344 H 0.0 **** 0.06
19666 C 111.12733934435269 86.29256094806962 109.74361950284111 C 0.0 **** -0.24
19667 H 111.51167031041373 86.81938662424301 110.61618838993846 H 0.0 **** 0.06
19668 H 110.61151554468404 86.99805425162157 109.09211344457418 H 0.0 **** 0.06
19669 H 110.43117779182376 85.51728922319566 110.06454941237703 H 0.0 **** 0.06
19670 H 111.9555840971429 85.8347930611647 109.2012631543532 H 0.0 **** 0.06
19671 C 92.53871594381386 92.38501364579352 40.51039476456174 C 0.0 **** -0.24
19672 H 91.89901433423483 91.6194559845546 40.95069864398826 H 0.0 **** 0.06
19673 H 92.2567654251568 92.53800747500458 39.46797690099268 H 0.0 **** 0.06
19674 H 93.57798072478184 92.06351982196946 40.5623799137031 H 0.0 **** 0.06
19675 H 92.41795561520385 93.31848053739992 41.05966119219917 H 0.0 **** 0.06
19676 C 7.036889682006972 51.59432959782307 6.369227457331476 C 0.0 **** -0.24
19677 H 6.110649144938407 51.332493439111374 5.858285786140158 H 0.0 **** 0.06
19678 H 6.8066353795568375 52.158981929100946 7.271652371290173 H 0.0 **** 0.06
19679 H 7.656196077073673 52.201095263680784 5.708520145054621 H 0.0 **** 0.06
19680 H 7.573708422975869 50.683162339375436 6.635931553895659 H 0.0 **** 0.06
19681 C 81.69795949016628 34.16094214206222 20.20792549890109 C 0.0 **** -0.24
19682 H 80.72197693533664 34.033431788800925 20.676433025632832 H 0.0 **** 0.06
19683 H 81.73630025801071 35.13019064337082 19.708706538593304 H 0.0 **** 0.06
19684 H 81.85717975408537 33.36823973193393 19.477050054804295 H 0.0 **** 0.06
19685 H 82.47533264915873 34.11433291763467 20.971248326363195 H 0.0 **** 0.06
19686 C 122.00906618182063 5.847982730024697 95.38964215571664 C 0.0 **** -0.24
19687 H 122.14528127982416 4.77651812911779 95.23845928615629 H 0.0 **** 0.06
19688 H 120.97597608886738 6.046151541517688 95.67356126116653 H 0.0 **** 0.06
19689 H 122.24049023606457 6.376774293825889 94.46476889725801 H 0.0 **** 0.06
19690 H 122.67669932621686 6.190314042787378 96.1810601557367 H 0.0 **** 0.06
19691 C 65.21500781852833 44.49955370196353 66.7026421874734 C 0.0 **** -0.24
19692 H 64.4117266550708 44.160147085745834 66.04895447025137 H 0.0 **** 0.06
19693 H 66.04400997483279 44.86993457448904 66.09874764403133 H 0.0 **** 0.06
19694 H 65.55686251956467 43.668476360975795 67.3194638321828 H 0.0 **** 0.06
19695 H 64.8468168692009 45.300736221264444 67.34460963756126 H 0.0 **** 0.06
19696 C 108.22016297167315 87.15438917932732 112.45057821024014 C 0.0 **** -0.24
19697 H 107.48587116436158 86.640112021069 113.0704706733739 H 0.0 **** 0.06
19698 H 109.19616655377538 86.68545752379381 112.57950956788525 H 0.0 **** 0.06
19699 H 108.27803333737887 88.2010325230662 112.74684798013786 H 0.0 **** 0.06
19700 H 107.92141022163594 87.08914178342482 111.40406125647951 H 0.0 **** 0.06
19701 C 76.90506173131374 56.330881653746104 12.447799472520217 C 0.0 **** -0.24
19702 H 77.7548534152894 56.73045955330079 11.89505750534471 H 0.0 **** 0.06
19703 H 77.2351850306631 56.00830103081276 13.436314821379256 H 0.0 **** 0.06
19704 H 76.48850363121949 55.48009453289518 11.908127552422172 H 0.0 **** 0.06
19705 H 76.14327942004303 57.10329787035653 12.552494345424293 H 0.0 **** 0.06
19706 C 50.178134434607216 77.24056742920698 0.9288124744933128 C 0.0 **** -0.24
19707 H 50.09128134030027 78.07718630937245 0.23499869529153727 H 0.0 **** 0.06
19708 H 50.52853456657812 77.60482815329328 1.8949393005821946 H 0.0 **** 0.06
19709 H 50.889213825336185 76.51451434447097 0.5337869209364214 H 0.0 **** 0.06
19710 H 49.2043142645183 76.76712936437332 1.0496749878884373 H 0.0 **** 0.06
19711 C 3.34325616460562 47.2820642855615 27.745185918260802 C 0.0 **** -0.24
19712 H 2.3723260349034376 47.77197617258376 27.818807636213023 H 0.0 **** 0.06
19713 H 3.2498994828796697 46.24404245658833 28.065559735788952 H 0.0 **** 0.06
19714 H 4.059572880390959 47.797607525324565 28.38443596962128 H 0.0 **** 0.06
19715 H 3.689049810119613 47.314285951898626 26.712320191145466 H 0.0 **** 0.06
19716 C 53.187596476517264 70.93084470265023 58.69718289597238 C 0.0 **** -0.24
19717 H 52.243600842343795 70.92911646924426 58.150581134834255 H 0.0 **** 0.06
19718 H 53.16881002322604 71.71694421222367 59.452242348615876 H 0.0 **** 0.06
19719 H 54.00858537505297 71.11258568117225 58.00276325383871 H 0.0 **** 0.06
19720 H 53.328609879293815 69.96416702908695 59.180303590537456 H 0.0 **** 0.06
19721 C 67.32932092554057 64.69460693393435 91.16363112672383 C 0.0 **** -0.24
19722 H 67.90290306192682 64.00624509706813 91.78463166175453 H 0.0 **** 0.06
19723 H 66.96158938054026 64.16827799710151 90.28152307437404 H 0.0 **** 0.06
19724 H 67.96742613079115 65.52187477583624 90.85303043533227 H 0.0 **** 0.06
19725 H 66.48543376384129 65.08160120859799 91.7344384481109 H 0.0 **** 0.06
19726 C 11.26119314088304 44.38359282507807 43.97221076014438 C 0.0 **** -0.24
19727 H 11.370263076610268 43.798970392750476 44.88571308274982 H 0.0 **** 0.06
19728 H 12.124611173127391 44.21654762640421 43.32786274947793 H 0.0 **** 0.06
19729 H 11.196227804335663 45.442560292037456 44.2245252553239 H 0.0 **** 0.06
19730 H 10.354120772681082 44.07795549192434 43.450558883518994 H 0.0 **** 0.06
19731 C 29.403074420286025 56.11798104092569 105.1800062951306 C 0.0 **** -0.24
19732 H 30.207535158310897 55.450543510623326 105.48719700407347 H 0.0 **** 0.06
19733 H 28.44401955987267 55.61752707046606 105.31347436097423 H 0.0 **** 0.06
19734 H 29.531730669131342 56.38277633024054 104.1298390549149 H 0.0 **** 0.06
19735 H 29.42904585185245 57.022396221473066 105.78839254785316 H 0.0 **** 0.06
19736 C 29.806593488992405 32.47530949042094 38.12969891490861 C 0.0 **** -0.24
19737 H 30.58673850075178 32.37499532087836 38.88394749996813 H 0.0 **** 0.06
19738 H 29.90347704878991 31.672097239222012 37.39843230796617 H 0.0 **** 0.06
19739 H 29.907912862267352 33.4376085323527 37.62815524530844 H 0.0 **** 0.06
19740 H 28.82909763446463 32.41537918295436 38.60729423607604 H 0.0 **** 0.06
19741 C 91.64192193449347 53.33272451419177 31.116643991115325 C 0.0 **** -0.24
19742 H 91.7737683602864 52.879290971529144 32.09823738093513 H 0.0 **** 0.06
19743 H 92.53888065807223 53.891938644754674 30.851487992737646 H 0.0 **** 0.06
19744 H 90.7863317760613 54.00845330076737 31.14112419538111 H 0.0 **** 0.06
19745 H 91.46673296796402 52.55230244290445 30.376686356928076 H 0.0 **** 0.06
19746 C 107.0650147705623 10.209887710849273 115.72422152022335 C 0.0 **** -0.24
19747 H 105.97698129246473 10.149983319420187 115.73155007668532 H 0.0 **** 0.06
19748 H 107.39686892968618 10.900363295090813 116.49939078904055 H 0.0 **** 0.06
19749 H 107.4024350972021 10.56667343274205 114.75071772310235 H 0.0 **** 0.06
19750 H 107.48397348616868 9.221312821670097 115.91336284005786 H 0.0 **** 0.06
19751 C 74.7875534104046 112.48245187485384 58.79359117828849 C 0.0 **** -0.24
19752 H 74.59396028685404 113.21656252793785 58.011512935807666 H 0.0 **** 0.06
19753 H 74.31547432096312 112.8071279242551 59.720436301032414 H 0.0 **** 0.06
19754 H 75.86281742282506 112.38903535189428 58.945866541407945 H 0.0 **** 0.06
19755 H 74.37722881678741 111.51764611779956 58.49428072549615 H 0.0 **** 0.06
19756 C 50.864788565035994 115.11861730202514 45.717396361508804 C 0.0 **** -0.24
19757 H 50.87999132027065 114.04716059751138 45.519736319614594 H 0.0 **** 0.06
19758 H 51.55142086334371 115.6229717689477 45.03686801143385 H 0.0 **** 0.06
19759 H 51.17233946928383 115.30199933556509 46.74723889247264 H 0.0 **** 0.06
19760 H 49.85623262174593 115.5014126969416 45.5664174375309 H 0.0 **** 0.06
19761 C 39.05682321399607 31.324918688081652 91.38470387836315 C 0.0 **** -0.24
19762 H 39.00224541480743 31.51527748665866 90.31313125539788 H 0.0 **** 0.06
19763 H 39.887547519858614 30.64956948028864 91.59171295344385 H 0.0 **** 0.06
19764 H 38.12551332097678 30.869572386126215 91.72092067791505 H 0.0 **** 0.06
19765 H 39.21333463511084 32.26567849228438 91.91311312367344 H 0.0 **** 0.06
19766 C 88.56475420322298 64.58482094891443 59.48814481276543 C 0.0 **** -0.24
19767 H 87.6987083017768 64.44508640194917 58.8410877132915 H 0.0 **** 0.06
19768 H 88.66298628773276 63.72723645598909 60.15517369622981 H 0.0 **** 0.06
19769 H 88.43429630182399 65.49167641038966 60.078864755882705 H 0.0 **** 0.06
19770 H 89.46379256297612 64.67465470150529 58.87732804154854 H 0.0 **** 0.06
19771 C 95.63440214650711 98.45954662125192 1.0284605437320238 C 0.0 **** -0.24
19772 H 94.60411852754186 98.72105427527595 1.2715275875609109 H 0.0 **** 0.06
19773 H 95.65249857243901 97.50213177600563 0.5073151818271526 H 0.0 **** 0.06
19774 H 96.21550395416091 98.38444813591192 1.9478016438076793 H 0.0 **** 0.06
19775 H 96.06295463640265 99.23144705071499 0.3888664181793615 H 0.0 **** 0.06
19776 C 97.97416451497716 52.655825824849835 119.11798376897099 C 0.0 **** -0.24
19777 H 98.13736912414606 52.164430130789206 120.07730888260701 H 0.0 **** 0.06
19778 H 97.4463975529568 51.97681048302811 118.44742773693747 H 0.0 **** 0.06
19779 H 98.93499784796848 52.92544183951356 118.67972741458382 H 0.0 **** 0.06
19780 H 97.37881105330862 53.55563426145512 119.26704101619782 H 0.0 **** 0.06
19781 C 31.617000009988374 61.428567650147556 94.82238769658616 C 0.0 **** -0.24
19782 H 32.471052394053736 60.75496188412353 94.74788293366797 H 0.0 **** 0.06
19783 H 30.87040120129398 60.99544654825877 95.487719519824 H 0.0 **** 0.06
19784 H 31.1825941748195 61.57231083424381 93.83275108013208 H 0.0 **** 0.06
19785 H 31.944416475477894 62.389013074601166 95.21848754207929 H 0.0 **** 0.06
19786 C 54.66257077712223 66.24676011718 70.61064036243656 C 0.0 **** -0.24
19787 H 53.98790754408475 66.99399822730535 70.19157125545684 H 0.0 **** 0.06
19788 H 54.95343348510002 65.54243063922533 69.8316037961674 H 0.0 **** 0.06
19789 H 54.15717982965606 65.71309335694303 71.41530606094412 H 0.0 **** 0.06
19790 H 55.55067645019537 66.74153846487906 71.00489266443873 H 0.0 **** 0.06
19791 C 118.55114192974162 43.937010714637665 62.32421810573348 C 0.0 **** -0.24
19792 H 118.009822508278 42.99389564554832 62.399546607145595 H 0.0 **** 0.06
19793 H 118.07065769676792 44.68341000243464 62.957045217468846 H 0.0 **** 0.06
19794 H 118.54287597857187 44.277705857938656 61.2891149256443 H 0.0 **** 0.06
19795 H 119.58048143343652 43.7907651429295 62.650589843906886 H 0.0 **** 0.06
19796 C 14.24783342055639 41.45464868901317 48.25785944360498 C 0.0 **** -0.24
19797 H 13.707377886807421 42.27238127798253 48.734029923075205 H 0.0 **** 0.06
19798 H 13.865893274722566 41.30668538447796 47.247890781590954 H 0.0 **** 0.06
19799 H 14.10730494467299 40.541647654527225 48.83660031514604 H 0.0 **** 0.06
19800 H 15.309594549221401 41.69673345979513 48.213492926631666 H 0.0 **** 0.06
19801 C 84.00565280073118 56.29572254735307 43.20595333536267 C 0.0 **** -0.24
19802 H 84.24950102496271 57.35882418544855 43.22993661548297 H 0.0 **** 0.06
19803 H 83.52730097837 56.01172171847943 44.143395707978506 H 0.0 **** 0.06
19804 H 84.91946177501524 55.71743761691422 43.073651545864635 H 0.0 **** 0.06
19805 H 83.32725491818451 56.09840072165672 42.37584518169298 H 0.0 **** 0.06
19806 C 46.793887596664575 108.22112505827693 7.391016915075966 C 0.0 **** -0.24
19807 H 46.8546403203768 109.21443674861698 7.836002461439904 H 0.0 **** 0.06
19808 H 47.63968855149983 107.62137045353276 7.728256188707746 H 0.0 **** 0.06
19809 H 46.81942172703617 108.3076375699103 6.305210455565117 H 0.0 **** 0.06
19810 H 45.864293965833895 107.74204083468015 7.696791448208671 H 0.0 **** 0.06
19811 C 12.399663949279926 5.8049479067996685 33.39293890913348 C 0.0 **** -0.24
19812 H 12.660359246638642 6.426258015819855 34.25004267649379 H 0.0 **** 0.06
19813 H 12.136571219241855 6.44264551799472 32.54864326477693 H 0.0 **** 0.06
19814 H 11.551423301483378 5.171101481169998 33.648153616690934 H 0.0 **** 0.06
19815 H 13.252003734344644 5.180775970704417 33.125270470897846 H 0.0 **** 0.06
19816 C 93.1026251182328 27.196550110220244 121.21024950707987 C 0.0 **** -0.24
19817 H 92.3931131696933 27.906758984441126 121.63406932892518 H 0.0 **** 0.06
19818 H 93.98239703421385 27.73238284139336 120.85195930870604 H 0.0 **** 0.06
19819 H 92.63469509786128 26.66971725370354 120.37884542571766 H 0.0 **** 0.06
19820 H 93.39981683612325 26.47922889947415 121.97463778551673 H 0.0 **** 0.06
19821 C 32.12762902435682 20.23464194072585 41.937994616915915 C 0.0 **** -0.24
19822 H 32.21525452578825 20.831105367584826 42.84544005017321 H 0.0 **** 0.06
19823 H 32.54468839560367 20.78913483061757 41.09672991298882 H 0.0 **** 0.06
19824 H 31.076078281437468 20.018524885898728 41.745052471994484 H 0.0 **** 0.06
19825 H 32.67394141234512 19.299866404397164 42.06345614490823 H 0.0 **** 0.06
19826 C 35.41395618613882 116.55280631238642 107.28319337678658 C 0.0 **** -0.24
19827 H 36.15954596206515 116.6462772983144 108.0731979501185 H 0.0 **** 0.06
19828 H 34.999025673561356 115.54486422035225 107.29270882080763 H 0.0 **** 0.06
19829 H 35.88174086178596 116.74476771768963 106.31802893702567 H 0.0 **** 0.06
19830 H 34.61525685985016 117.27615196158533 107.44994959006317 H 0.0 **** 0.06
19831 C 114.91577418818278 7.001245282568647 54.97547474599933 C 0.0 **** -0.24
19832 H 114.0063267511662 7.329391392502256 55.47886984265936 H 0.0 **** 0.06
19833 H 115.00578607053689 5.918640930772721 55.058376776504836 H 0.0 **** 0.06
19834 H 115.77978866266722 7.475854322746493 55.44161681603753 H 0.0 **** 0.06
19835 H 114.86996920943986 7.283557885309957 53.9242309297883 H 0.0 **** 0.06
19836 C 49.609278044743945 46.67115904001963 18.14564857189154 C 0.0 **** -0.24
19837 H 48.908895652391294 47.46538171930308 17.88720908172499 H 0.0 **** 0.06
19838 H 49.70159356404426 45.98144965184062 17.306129075618543 H 0.0 **** 0.06
19839 H 49.24108245038562 46.13278351723255 19.019225102546528 H 0.0 **** 0.06
19840 H 50.58363013021602 47.104431156692755 18.369981755230384 H 0.0 **** 0.06
19841 C 99.1055477574194 18.211369378823548 41.91754874222329 C 0.0 **** -0.24
19842 H 98.37017644127286 17.75615363907673 42.58169469103899 H 0.0 **** 0.06
19843 H 99.65045991385023 17.42931004463179 41.38863941237446 H 0.0 **** 0.06
19844 H 99.80274018823076 18.8091160680614 42.50365937371225 H 0.0 **** 0.06
19845 H 98.59560123401218 18.850076189513004 41.19617623286041 H 0.0 **** 0.06
19846 C 12.456098953090901 75.60924313094529 92.85492509191027 C 0.0 **** -0.24
19847 H 12.857436197639771 76.04795116428198 91.941546315197 H 0.0 **** 0.06
19848 H 12.539121345869404 74.5239156816209 92.8026402079935 H 0.0 **** 0.06
19849 H 11.408435995527412 75.88940718221608 92.96193223908324 H 0.0 **** 0.06
19850 H 13.020178829829206 75.9772992857138 93.71222709087058 H 0.0 **** 0.06
19851 C 73.98645035173232 112.08747087338716 91.31965878914994 C 0.0 **** -0.24
19852 H 73.89603626680244 112.4829820238073 90.30846776017358 H 0.0 **** 0.06
19853 H 74.54892916723128 111.15358050285656 91.29564747604243 H 0.0 **** 0.06
19854 H 72.99238461993883 111.90291743463126 91.72779297918288 H 0.0 **** 0.06
19855 H 74.50845135295668 112.81040353225328 91.94672694120067 H 0.0 **** 0.06
19856 C 100.59569625607153 24.28611836252597 74.18265464806802 C 0.0 **** -0.24
19857 H 99.74416222109022 23.70121331240351 73.83475235214419 H 0.0 **** 0.06
19858 H 100.27735792711337 24.94951773519668 74.98699358551451 H 0.0 **** 0.06
19859 H 100.99050431081793 24.877981531558788 73.35683582959882 H 0.0 **** 0.06
19860 H 101.37171410702507 23.61412178618238 74.55085173532785 H 0.0 **** 0.06
19861 C 51.24738094204292 100.64880497523257 108.22045591116549 C 0.0 **** -0.24
19862 H 52.00753052973835 101.39170004447277 107.97810973518963 H 0.0 **** 0.06
19863 H 51.54522922538101 100.10513069968306 109.1173889350213 H 0.0 **** 0.06
19864 H 51.14400015764835 99.95196551714696 107.38953098396811 H 0.0 **** 0.06
19865 H 50.29473431128402 101.14857340712194 108.39749847916858 H 0.0 **** 0.06
19866 C 54.47349973184271 42.45244349489735 27.42676628711149 C 0.0 **** -0.24
19867 H 55.258464998165664 41.70934947663568 27.56743590821003 H 0.0 **** 0.06
19868 H 54.812937466163135 43.208850862813904 26.718809315535623 H 0.0 **** 0.06
19869 H 54.24572064123015 42.92450867190752 28.383053035676028 H 0.0 **** 0.06
19870 H 53.57850380141167 41.965807952043065 27.039097274945334 H 0.0 **** 0.06
19871 C 82.99754611545774 81.1157065608869 7.072995436191633 C 0.0 **** -0.24
19872 H 83.08186994081956 81.1905272948269 8.15653888501501 H 0.0 **** 0.06
19873 H 83.35185279504262 80.136576491771 6.747585961859812 H 0.0 **** 0.06
19874 H 83.60179398521456 81.89478364465612 6.606679429751324 H 0.0 **** 0.06
19875 H 81.9546241153665 81.23984126132905 6.78028663143769 H 0.0 **** 0.06
19876 C 49.031152073058735 109.24975407374569 96.70572978058411 C 0.0 **** -0.24
19877 H 48.17256427661369 108.94689333780079 96.10561099923015 H 0.0 **** 0.06
19878 H 49.12734265343151 110.33501920531347 96.68017447756765 H 0.0 **** 0.06
19879 H 49.93498273842304 108.79459458613618 96.30156142334172 H 0.0 **** 0.06
19880 H 48.887470166250054 108.92052575012181 97.73546733047485 H 0.0 **** 0.06
19881 C 92.30605917923788 92.58622125229999 90.40515300317898 C 0.0 **** -0.24
19882 H 93.21259725403695 92.14581438816313 90.82017786655697 H 0.0 **** 0.06
19883 H 92.41040217551244 92.68436586891784 89.324262470441 H 0.0 **** 0.06
19884 H 92.14586127508213 93.57006554722565 90.84597060099301 H 0.0 **** 0.06
19885 H 91.4545271671235 91.94382284378614 90.63098409943728 H 0.0 **** 0.06
19886 C 86.9897827366089 11.301954691717874 93.70043447836287 C 0.0 **** -0.24
19887 H 86.48400651671687 10.822908058148265 92.8618136498782 H 0.0 **** 0.06
19888 H 87.35006437208705 12.28423136857181 93.39342658252835 H 0.0 **** 0.06
19889 H 87.83341131227763 10.686749289408038 94.01384999467646 H 0.0 **** 0.06
19890 H 86.291901340045 11.41291412907826 94.53043309090478 H 0.0 **** 0.06
19891 C 103.30588035810112 36.933594603100346 89.1809019565427 C 0.0 **** -0.24
19892 H 103.8668851892873 36.07463909596174 89.5477821703094 H 0.0 **** 0.06
19893 H 103.32037203584045 36.937642113774984 88.09065162707799 H 0.0 **** 0.06
19894 H 103.76051801155859 37.85128201261409 89.55443718476465 H 0.0 **** 0.06
19895 H 102.2751711876785 36.870289457705894 89.53010992542869 H 0.0 **** 0.06
19896 C 67.41311012750293 93.48066213310656 17.75782313741871 C 0.0 **** -0.24
19897 H 67.28643942951419 92.4328522615281 17.48403456675095 H 0.0 **** 0.06
19898 H 68.16567905412285 93.5615399845687 18.54240642396502 H 0.0 **** 0.06
19899 H 66.46522860421794 93.87908228579815 18.119632659228557 H 0.0 **** 0.06
19900 H 67.73522515723755 94.04725524306926 16.884078156997475 H 0.0 **** 0.06
19901 C 120.43889878990085 52.89009300153602 47.97123853390502 C 0.0 **** -0.24
19902 H 120.20028087305995 51.89546426692894 47.596002289221815 H 0.0 **** 0.06
19903 H 120.35987141846736 53.613424382591724 47.159411865278685 H 0.0 **** 0.06
19904 H 121.45450902065951 52.89612966263123 48.36654161793956 H 0.0 **** 0.06
19905 H 119.73903725974512 53.15629664187413 48.764228866520796 H 0.0 **** 0.06
19906 C 99.13068145179727 88.6892943272828 2.9721890512553557 C 0.0 **** -0.24
19907 H 99.2057743580475 88.82777400969985 1.8933412413497308 H 0.0 **** 0.06
19908 H 100.08417110888468 88.9404027981148 3.437245133433123 H 0.0 **** 0.06
19909 H 98.88239439317556 87.65045093840627 3.188471394927376 H 0.0 **** 0.06
19910 H 98.35054718365089 89.3402252139409 3.3682265403747635 H 0.0 **** 0.06
19911 C 49.59727081402275 26.030183670097244 88.4214715776653 C 0.0 **** -0.24
19912 H 49.5968516130456 25.56777576647272 89.40872580315548 H 0.0 **** 0.06
19913 H 49.02969965791628 25.407268747098783 87.72953360566225 H 0.0 **** 0.06
19914 H 50.62307886587065 26.126806731828424 88.06692692563755 H 0.0 **** 0.06
19915 H 49.13941670396713 27.017039356457474 88.48231192604075 H 0.0 **** 0.06
19916 C 61.05242419054741 63.114856103257544 105.23861563513225 C 0.0 **** -0.24
19917 H 60.194551938568054 63.787166178352486 105.24730394945882 H 0.0 **** 0.06
19918 H 61.94303261760757 63.667375558321375 104.94130444947095 H 0.0 **** 0.06
19919 H 60.871843454291536 62.30587254956084 104.53014659121698 H 0.0 **** 0.06
19920 H 61.19712188752527 62.69796243957817 106.23569307608281 H 0.0 **** 0.06
19921 C 61.358490412279224 38.366978073454106 2.690520443086175 C 0.0 **** -0.24
19922 H 61.23938328035317 37.597834889411686 1.9282315784875959 H 0.0 **** 0.06
19923 H 60.45842421739934 38.41257977796887 3.3040556804924375 H 0.0 **** 0.06
19924 H 61.520578242499994 39.3316627082427 2.210190148193183 H 0.0 **** 0.06
19925 H 62.21557590886434 38.12583491819315 3.3196043651713474 H 0.0 **** 0.06
19926 C 62.808326355903965 22.325172963421977 40.576175234520576 C 0.0 **** -0.24
19927 H 62.588596614540556 21.45917794048094 41.20023257675217 H 0.0 **** 0.06
19928 H 63.178415368056115 21.990084812999385 39.608030050406 H 0.0 **** 0.06
19929 H 63.5661191593395 22.940424559585637 41.062408441006994 H 0.0 **** 0.06
19930 H 61.90025110031436 22.911245364263408 40.43646635033929 H 0.0 **** 0.06
19931 C 109.04998316483642 113.71799317104384 21.173953782750885 C 0.0 **** -0.24
19932 H 108.8665514041482 114.4008804561542 20.344885732786537 H 0.0 **** 0.06
19933 H 108.20750317982927 113.75064292112117 21.865174172237317 H 0.0 **** 0.06
19934 H 109.96022254305953 114.01577149891003 21.695444463185424 H 0.0 **** 0.06
19935 H 109.16611593024973 112.70414402043176 20.791020100683568 H 0.0 **** 0.06
19936 C 114.43250276140704 101.5627593315316 111.64643939592284 C 0.0 **** -0.24
19937 H 114.28460117151842 101.44413430522508 110.57340383723985 H 0.0 **** 0.06
19938 H 115.1282230313596 100.8016229257085 112.00308339639511 H 0.0 **** 0.06
19939 H 113.47668305012262 101.45114446226916 112.15936237971732 H 0.0 **** 0.06
19940 H 114.84128344613734 102.5526097913534 111.85016117953322 H 0.0 **** 0.06
19941 C 72.68002345543559 45.755240840452345 38.10475395024815 C 0.0 **** -0.24
19942 H 71.79396471919691 46.32257747899191 37.81968344832171 H 0.0 **** 0.06
19943 H 72.89994808800111 45.01439595216967 37.33490381161201 H 0.0 **** 0.06
19944 H 72.49818090643234 45.25082713807159 39.05370454329224 H 0.0 **** 0.06
19945 H 73.52682812267477 46.433509686620155 38.21001250217137 H 0.0 **** 0.06
19946 C 32.200141731572565 65.2266518314594 30.458060022178586 C 0.0 **** -0.24
19947 H 32.181905445299684 65.62716070890164 29.444547714690884 H 0.0 **** 0.06
19948 H 33.1924348903821 65.37111275470039 30.886616339908073 H 0.0 **** 0.06
19949 H 31.965096751384934 64.16307149388274 30.432686891720437 H 0.0 **** 0.06
19950 H 31.461918452904015 65.74805581865601 31.06763070661691 H 0.0 **** 0.06
19951 C 0.2929260478682636 75.6413938974427 67.8451316910934 C 0.0 **** -0.24
19952 H -0.12099918258309117 74.66638301664153 68.10214299685654 H 0.0 **** 0.06
19953 H 1.3655981375538886 75.64264385185322 68.03849184698197 H 0.0 **** 0.06
19954 H -0.18694347020868918 76.41049825643722 68.45005056053324 H 0.0 **** 0.06
19955 H 0.11351239210642916 75.84522805039131 66.78965147376275 H 0.0 **** 0.06
19956 C 27.60391736868064 34.87903940179129 93.74942683212504 C 0.0 **** -0.24
19957 H 27.296418176305963 35.143420810232286 94.7618812387166 H 0.0 **** 0.06
19958 H 26.77423804776879 34.39525382488327 93.23299781907724 H 0.0 **** 0.06
19959 H 28.45270839393322 34.19573316538927 93.79426634700863 H 0.0 **** 0.06
19960 H 27.892077342023185 35.78088603647386 93.21061190331793 H 0.0 **** 0.06
19961 C 35.83589696489355 119.52546836262546 14.868468626956243 C 0.0 **** -0.24
19962 H 36.21920636881248 118.52530706788691 14.66745273292737 H 0.0 **** 0.06
19963 H 36.66817558975458 120.20203974905091 15.059820450379238 H 0.0 **** 0.06
19964 H 35.183337888963024 119.49511834814086 15.740568170684718 H 0.0 **** 0.06
19965 H 35.27204092900752 119.87763721176384 14.004556818600758 H 0.0 **** 0.06
19966 C 119.83183285919412 16.01952364431915 62.232369478906044 C 0.0 **** -0.24
19967 H 119.80788328987792 17.075755051868725 62.50430674156926 H 0.0 **** 0.06
19968 H 118.85726520436172 15.722599389603857 61.84531782485275 H 0.0 **** 0.06
19969 H 120.07210069571336 15.423358024752048 63.11287448638608 H 0.0 **** 0.06
19970 H 120.59154516239106 15.85980801710545 61.46733075062357 H 0.0 **** 0.06
19971 C 35.099060562348285 55.481585178855745 44.70638237801336 C 0.0 **** -0.24
19972 H 35.96288831975673 55.53333568985817 44.0437304236076 H 0.0 **** 0.06
19973 H 35.19733456229736 54.618262722958924 45.36409786189449 H 0.0 **** 0.06
19974 H 34.19026951542631 55.38515948230833 44.111640339353784 H 0.0 **** 0.06
19975 H 35.0464228927699 56.39047469160324 45.30519388494619 H 0.0 **** 0.06
19976 C 96.75939010930574 74.36426693374568 61.53330244169418 C 0.0 **** -0.24
19977 H 95.66986716985173 74.34845373697601 61.52431374107372 H 0.0 **** 0.06
19978 H 97.12670453699195 73.6430708807546 62.26421184688228 H 0.0 **** 0.06
19979 H 97.10629600150389 75.36193817516889 61.8017228302728 H 0.0 **** 0.06
19980 H 97.13490111859113 74.10327312952953 60.54432023981689 H 0.0 **** 0.06
19981 C 39.68005883298383 93.70683503382207 83.52139049820562 C 0.0 **** -0.24
19982 H 40.109999022624095 94.69137469678304 83.33665223677767 H 0.0 **** 0.06
19983 H 38.595787477867134 93.7923768083237 83.59191959257589 H 0.0 **** 0.06
19984 H 40.07530572707623 93.30712020767538 84.45575826921757 H 0.0 **** 0.06
19985 H 39.94027678228895 93.03726483905206 82.7015158068807 H 0.0 **** 0.06
19986 C 65.62154103965867 117.36602173886374 18.46974577516835 C 0.0 **** -0.24
19987 H 64.56092764162378 117.60625517349403 18.541294536885573 H 0.0 **** 0.06
19988 H 66.0353709502865 117.81658775793854 17.56717985486614 H 0.0 **** 0.06
19989 H 65.74683588543064 116.2845793238925 18.42785817707818 H 0.0 **** 0.06
19990 H 66.14202092186184 117.75868413094152 19.343601656220244 H 0.0 **** 0.06
19991 C 32.753208978572644 122.46107052569118 2.4812635579253595 C 0.0 **** -0.24
19992 H 31.893282266875516 123.02072255873901 2.8496747395121496 H 0.0 **** 0.06
19993 H 33.64675848768852 122.77163023357662 3.0239717156920385 H 0.0 **** 0.06
19994 H 32.88686557429452 122.65776135193465 1.4181155475944411 H 0.0 **** 0.06
19995 H 32.586247215912536 121.39488846074471 2.636514122709361 H 0.0 **** 0.06
19996 C 119.52634525021148 23.686028688299125 45.641113343865406 C 0.0 **** -0.24
19997 H 119.99433702324338 23.73263787067249 46.624357670358584 H 0.0 **** 0.06
19998 H 118.55140479719401 23.205165999171157 45.726091953414105 H 0.0 **** 0.06
19999 H 120.15878297104504 23.109583825156214 44.9657105035826 H 0.0 **** 0.06
20000 H 119.401215880656 24.695048389816435 45.250040544019 H 0.0 **** 0.06
20001 C 99.99668616540544 25.362310103714805 107.99996742199826 C 0.0 **** -0.24
20002 H 99.41287648789827 25.427405060408518 108.918420504844 H 0.0 **** 0.06
20003 H 99.68253588148227 24.48745872492816 107.43179515502985 H 0.0 **** 0.06
20004 H 101.05451361697675 25.273533719705654 108.24856347510752 H 0.0 **** 0.06
20005 H 99.8376888895992 26.26089979981748 107.40396109155051 H 0.0 **** 0.06
20006 C 38.2594222822212 44.75337321003059 87.7472081471152 C 0.0 **** -0.24
20007 H 38.31843964765138 44.187482173987064 86.81700361865421 H 0.0 **** 0.06
20008 H 37.472759561097064 45.50411442685919 87.66682430085947 H 0.0 **** 0.06
20009 H 39.214968612767564 45.245260117977296 87.93362891350588 H 0.0 **** 0.06
20010 H 38.03257526882714 44.07587115518817 88.57082429971464 H 0.0 **** 0.06
20011 C 57.309104153319936 17.04801730885849 70.87156841112642 C 0.0 **** -0.24
20012 H 57.08367432485335 18.09948193610834 71.04760993857093 H 0.0 **** 0.06
20013 H 58.25839086312436 16.796258883441045 71.34367065460117 H 0.0 **** 0.06
20014 H 57.375430539936474 16.86543781645292 69.7991782539633 H 0.0 **** 0.06
20015 H 56.51768386019154 16.431305360350308 71.29636055686399 H 0.0 **** 0.06
20016 C 110.07727106894691 59.98259107562632 90.36909814740193 C 0.0 **** -0.24
20017 H 110.2403812309739 59.02141822488912 90.85851929559655 H 0.0 **** 0.06
20018 H 110.20625735576371 60.78593744736273 91.09488965427695 H 0.0 **** 0.06
20019 H 109.06639118053036 60.01647545083358 89.96348527953538 H 0.0 **** 0.06
20020 H 110.79748655322248 60.10371364884375 89.55950556616585 H 0.0 **** 0.06
20021 C 71.81628875215696 82.36808818956092 121.09844234944893 C 0.0 **** -0.24
20022 H 71.49567390009264 81.8046484060394 121.97443197783073 H 0.0 **** 0.06
20023 H 71.24144782105773 82.04710298678123 120.22970214827156 H 0.0 **** 0.06
20024 H 72.87634017509794 82.18945050321818 120.9201430270171 H 0.0 **** 0.06
20025 H 71.65164751598732 83.43247573292854 121.27098986318096 H 0.0 **** 0.06
20026 C 43.562279846433 116.60104667291225 80.41022243976175 C 0.0 **** -0.24
20027 H 42.98687230755877 115.91249723088987 79.79111907164886 H 0.0 **** 0.06
20028 H 43.02003676292668 117.54140987588826 80.50842939369065 H 0.0 **** 0.06
20029 H 44.53011257471951 116.78508639096452 79.94348660585598 H 0.0 **** 0.06
20030 H 43.712803014812664 116.16248372961462 81.39677677672546 H 0.0 **** 0.06
20031 C 48.263494341017804 59.809986985768546 116.58527798230239 C 0.0 **** -0.24
20032 H 48.252165827311956 60.7786490255379 116.08556541582544 H 0.0 **** 0.06
20033 H 48.38105942637395 59.02010653035623 115.84318131421955 H 0.0 **** 0.06
20034 H 47.32661000105685 59.667738046361535 117.12370633425621 H 0.0 **** 0.06
20035 H 49.09594306342518 59.77488159826868 117.28781043430641 H 0.0 **** 0.06
20036 C 50.76859991893283 21.323984775741266 32.37525027633498 C 0.0 **** -0.24
20037 H 49.917153600079956 21.99879892219272 32.29869926839834 H 0.0 **** 0.06
20038 H 50.44561163785754 20.30530756111731 32.15865508171609 H 0.0 **** 0.06
20039 H 51.178681013944384 21.368178078750667 33.38498621446763 H 0.0 **** 0.06
20040 H 51.533926544603766 21.62300438905389 31.659454549507473 H 0.0 **** 0.06
20041 C 47.936120274721645 80.03836318201402 100.12292874211215 C 0.0 **** -0.24
20042 H 48.356038897796935 79.183923894423 100.65477180834333 H 0.0 **** 0.06
20043 H 46.848128465282315 79.97764235032821 100.14111973903024 H 0.0 **** 0.06
20044 H 48.28336744796624 80.02916326657763 99.08991283042451 H 0.0 **** 0.06
20045 H 48.257867172579836 80.96046531729957 100.60567779149301 H 0.0 **** 0.06
20046 C 94.81372832744938 56.615516579013274 2.0097194227597015 C 0.0 **** -0.24
20047 H 94.10938209392458 56.01624089065007 1.4307813518959733 H 0.0 **** 0.06
20048 H 94.30442435627853 57.49643030688185 2.4002070483627165 H 0.0 **** 0.06
20049 H 95.63806981497606 56.925546207457785 1.3682033899708586 H 0.0 **** 0.06
20050 H 95.2003526559165 56.02171021885931 2.837400950214686 H 0.0 **** 0.06
20051 C 36.52862207634567 110.50607518875108 75.26542161571146 C 0.0 **** -0.24
20052 H 36.98676382813588 109.5189566237207 75.32451633221831 H 0.0 **** 0.06
20053 H 37.13308755399481 111.14961358841194 74.62515759277 H 0.0 **** 0.06
20054 H 36.46970946501628 110.93934615296925 76.26383771175102 H 0.0 **** 0.06
20055 H 35.526336421629765 110.41636447671777 74.8480542568534 H 0.0 **** 0.06
20056 C 35.579853804743266 5.787291616612464 56.9981070293602 C 0.0 **** -0.24
20057 H 35.552265962462855 6.308779412585579 56.04076457199929 H 0.0 **** 0.06
20058 H 34.8304807580617 4.995203193370941 57.00129204358021 H 0.0 **** 0.06
20059 H 35.36642732813834 6.491852835079499 57.80146853926411 H 0.0 **** 0.06
20060 H 36.56828846830928 5.353121208297779 57.1478337526149 H 0.0 **** 0.06
20061 C 39.97597995334283 50.492381737348296 33.567598721840625 C 0.0 **** -0.24
20062 H 39.78845464143097 50.92365885730979 34.55083288615998 H 0.0 **** 0.06
20063 H 39.02837138288401 50.21768189761269 33.10455756908004 H 0.0 **** 0.06
20064 H 40.59879208904332 49.6034636263382 33.67413903376615 H 0.0 **** 0.06
20065 H 40.48875361507903 51.222787078813894 32.94189006034196 H 0.0 **** 0.06
20066 C 27.468645951627636 112.7440292783587 73.43278205187448 C 0.0 **** -0.24
20067 H 28.340431892649505 112.57392714571375 72.80166984388435 H 0.0 **** 0.06
20068 H 26.613226891479236 113.00286937841489 72.80835816262433 H 0.0 **** 0.06
20069 H 27.67460264441067 113.56093024908328 74.1250434347362 H 0.0 **** 0.06
20070 H 27.245537904612178 111.83790761853719 73.99712993569383 H 0.0 **** 0.06
20071 C 112.55851940930452 93.05655856761246 21.199015875089174 C 0.0 **** -0.24
20072 H 112.00712075237851 93.7165400920403 20.52915465785918 H 0.0 **** 0.06
20073 H 111.9059299818799 92.24832013483956 21.530225543098425 H 0.0 **** 0.06
20074 H 112.90352957168602 93.62304508529644 22.063628567800095 H 0.0 **** 0.06
20075 H 113.41662651121581 92.63893288815237 20.672118220812365 H 0.0 **** 0.06
20076 C 89.52146889812627 10.249886252744489 88.97234899008419 C 0.0 **** -0.24
20077 H 88.66731962698097 10.155670207049681 88.30194353314414 H 0.0 **** 0.06
20078 H 90.35390642394623 10.707653239305998 88.43717301338597 H 0.0 **** 0.06
20079 H 89.81526784432421 9.262923025652427 89.32704575092527 H 0.0 **** 0.06
20080 H 89.2482513886111 10.87518565229891 89.82283181220305 H 0.0 **** 0.06
20081 C 51.78001945849461 81.21663299963149 85.73325338721065 C 0.0 **** -0.24
20082 H 51.71003238658125 82.05931688401805 86.42076323193862 H 0.0 **** 0.06
20083 H 52.41269854864567 81.48895848314118 84.8881935342585 H 0.0 **** 0.06
20084 H 50.78469106628407 80.95695487730953 85.37265832947043 H 0.0 **** 0.06
20085 H 52.21427165507066 80.36079238140232 86.2510381424753 H 0.0 **** 0.06
20086 C 69.19895244777837 7.321348894802526 66.08248354589469 C 0.0 **** -0.24
20087 H 70.09046131302051 7.940740371211287 66.17731093446844 H 0.0 **** 0.06
20088 H 69.46200624627164 6.277231579724763 66.25227125554065 H 0.0 **** 0.06
20089 H 68.78370020016541 7.433254485969755 65.0806807387265 H 0.0 **** 0.06
20090 H 68.45869606492874 7.634196010460673 66.8199944896121 H 0.0 **** 0.06
20091 C 41.90535780037112 112.265017918229 53.14369855756823 C 0.0 **** -0.24
20092 H 41.6608388904005 111.74506104959978 52.21779605207007 H 0.0 **** 0.06
20093 H 42.96902376675553 112.15144023591833 53.35313101361396 H 0.0 **** 0.06
20094 H 41.32536438198086 111.84047913932017 53.962650048609646 H 0.0 **** 0.06
20095 H 41.666542547193984 113.32353550810018 53.039051843007485 H 0.0 **** 0.06
20096 C 99.44083978820345 110.51895241968026 40.267556479554074 C 0.0 **** -0.24
20097 H 98.73483829931422 111.27032012736333 40.62137507562812 H 0.0 **** 0.06
20098 H 98.89653656609144 109.62678030106389 39.95811660489 H 0.0 **** 0.06
20099 H 100.13288505400615 110.2646086181256 41.0697999963591 H 0.0 **** 0.06
20100 H 99.99851399685136 110.91724666397513 39.41927270420034 H 0.0 **** 0.06
20101 C 45.00490659989409 34.98957412749124 51.472919700606525 C 0.0 **** -0.24
20102 H 44.93311831196938 35.20776137289744 52.53881460193591 H 0.0 **** 0.06
20103 H 45.92568916742466 34.4394010208151 51.27624940086753 H 0.0 **** 0.06
20104 H 45.01145734730407 35.92336428363353 50.911053934851935 H 0.0 **** 0.06
20105 H 44.14887842458402 34.38717973990106 51.167888673243425 H 0.0 **** 0.06
20106 C 62.02894684170553 109.67533055852633 60.28841911559462 C 0.0 **** -0.24
20107 H 61.732138810211495 109.0192756490539 59.47031578454832 H 0.0 **** 0.06
20108 H 61.707426363137074 109.2417769519985 61.23575644708694 H 0.0 **** 0.06
20109 H 61.56226852288398 110.65117939532144 60.15878325915932 H 0.0 **** 0.06
20110 H 63.112795791554504 109.78837013506359 60.28919631091304 H 0.0 **** 0.06
20111 C 52.418941671574856 88.36045546404151 120.70997677090904 C 0.0 **** -0.24
20112 H 52.43584496233706 88.83042362095904 121.69356426933906 H 0.0 **** 0.06
20113 H 52.345691065342436 87.27839302313541 120.8266405966348 H 0.0 **** 0.06
20114 H 53.33669263104619 88.60666018853908 120.17508651243405 H 0.0 **** 0.06
20115 H 51.55998566246964 88.72548099295426 120.14731075881821 H 0.0 **** 0.06
20116 C 90.95365309963424 86.09443697853393 68.60912335563597 C 0.0 **** -0.24
20117 H 91.3355341000615 86.44040165342727 69.56893344083261 H 0.0 **** 0.06
20118 H 90.9469040507918 86.92268364243645 67.90087409280656 H 0.0 **** 0.06
20119 H 89.93953642082596 85.71581251642587 68.73667728606765 H 0.0 **** 0.06
20120 H 91.59365655738941 85.2968691384983 68.22981302515194 H 0.0 **** 0.06
20121 C 67.31761191603437 28.767227357972786 107.85337620912392 C 0.0 **** -0.24
20122 H 68.16936838572201 29.357385858498162 108.19242638935904 H 0.0 **** 0.06
20123 H 67.02635093105889 28.067000430788823 108.63691591641182 H 0.0 **** 0.06
20124 H 67.59250147578462 28.213992904830263 106.95518162290807 H 0.0 **** 0.06
20125 H 66.48185645769323 29.431100221921213 107.63057404265643 H 0.0 **** 0.06
20126 C 81.8218908994734 67.39882612466289 116.22120772256928 C 0.0 **** -0.24
20127 H 81.19887628983787 66.96762862732243 117.00542497418536 H 0.0 **** 0.06
20128 H 81.34765177927312 68.3025225366442 115.83704468512511 H 0.0 **** 0.06
20129 H 81.93939611134661 66.67718642625749 115.41324438208824 H 0.0 **** 0.06
20130 H 82.79980205688247 67.64809764964329 116.63168736819526 H 0.0 **** 0.06
20131 C 56.8075773307562 48.53087721112423 84.88696077780764 C 0.0 **** -0.24
20132 H 57.14845367650949 49.5666764244076 84.90388726481436 H 0.0 **** 0.06
20133 H 57.5599236050453 47.9078947349323 84.40390797328396 H 0.0 **** 0.06
20134 H 55.87073340085402 48.466059452484366 84.33357281348782 H 0.0 **** 0.06
20135 H 56.64998744827369 48.18470813242914 85.90875212719203 H 0.0 **** 0.06
20136 C 102.74309566592262 122.5783579226046 26.985654447512218 C 0.0 **** -0.24
20137 H 103.59267731896239 123.24447717952381 27.13882535702328 H 0.0 **** 0.06
20138 H 102.93229756899532 121.62733155910672 27.483650062991387 H 0.0 **** 0.06
20139 H 102.6036360917013 122.4089582803615 25.917760285145363 H 0.0 **** 0.06
20140 H 101.84425763693093 123.03440633317143 27.401527282692598 H 0.0 **** 0.06
20141 C 89.64777580657278 15.624405231686154 45.74475678681199 C 0.0 **** -0.24
20142 H 88.87784030128506 15.62846833345941 46.51538695706125 H 0.0 **** 0.06
20143 H 89.20753647354809 15.913400728044422 44.78971483171853 H 0.0 **** 0.06
20144 H 90.07223186512425 14.623915054970979 45.66128469411109 H 0.0 **** 0.06
20145 H 90.43332574581541 16.330609741873573 46.01142989475977 H 0.0 **** 0.06
20146 C 35.60277171673104 119.8496870692266 86.63507069541555 C 0.0 **** -0.24
20147 H 35.76273072241287 118.87724488944153 86.16963709214369 H 0.0 **** 0.06
20148 H 34.585609973913904 119.90354799642792 87.02521068193525 H 0.0 **** 0.06
20149 H 35.75126707154908 120.6358165473725 85.89488511568607 H 0.0 **** 0.06
20150 H 36.31249526570775 119.98185476337606 87.45224898764502 H 0.0 **** 0.06
20151 C 75.86919290511412 65.2409954748415 42.82906289607104 C 0.0 **** -0.24
20152 H 76.88107734209649 65.26311983441781 43.233474220638186 H 0.0 **** 0.06
20153 H 75.52882105435373 64.20727494158905 42.760732470949165 H 0.0 **** 0.06
20154 H 75.86415688123316 65.69209302490589 41.83697784521439 H 0.0 **** 0.06
20155 H 75.20354966560336 65.79989585115766 43.48639047370057 H 0.0 **** 0.06
20156 C 11.797558008162373 58.707944182601096 48.7136519731659 C 0.0 **** -0.24
20157 H 11.26445174718809 59.65831693695014 48.72819311090966 H 0.0 **** 0.06
20158 H 12.762882779701005 58.82600195095188 49.20493348587728 H 0.0 **** 0.06
20159 H 11.949831252715313 58.39240237430556 47.68127831009828 H 0.0 **** 0.06
20160 H 11.210320153516768 57.95481439983391 49.24083644353282 H 0.0 **** 0.06
20161 C 38.55061527521397 6.315772172965254 28.98796632017625 C 0.0 **** -0.24
20162 H 38.07949599670415 7.162530861584251 28.48759990886746 H 0.0 **** 0.06
20163 H 39.63263724415671 6.449399107332301 28.985235036694156 H 0.0 **** 0.06
20164 H 38.2959298921366 5.39611811299428 28.46197406750889 H 0.0 **** 0.06
20165 H 38.19375715403538 6.258119768436767 30.016726574923624 H 0.0 **** 0.06
20166 C 98.32497532123648 14.457836529957149 53.22295594490555 C 0.0 **** -0.24
20167 H 99.34565835528741 14.822087414307475 53.100181164388175 H 0.0 **** 0.06
20168 H 98.09520637736239 13.747001807184006 52.429475424944485 H 0.0 **** 0.06
20169 H 97.63174061466736 15.298291167765342 53.17175190546885 H 0.0 **** 0.06
20170 H 98.22863578709723 13.966696608158713 54.19127996258209 H 0.0 **** 0.06
20171 C 75.55129139277577 117.57121397550402 94.55386749531493 C 0.0 **** -0.24
20172 H 74.82849487597133 118.37105688650993 94.38769669039999 H 0.0 **** 0.06
20173 H 75.76342623900561 117.48992933061885 95.62022052168945 H 0.0 **** 0.06
20174 H 76.47176183932913 117.79600810590341 94.01491119418563 H 0.0 **** 0.06
20175 H 75.13926347901977 116.62879155933746 94.19218233861517 H 0.0 **** 0.06
20176 C 9.3565940460132 67.28918974598972 82.23780674994435 C 0.0 **** -0.24
20177 H 9.265908661270291 67.99882977837126 81.4164565071028 H 0.0 **** 0.06
20178 H 10.299338091762184 67.45675037292483 82.76016325512325 H 0.0 **** 0.06
20179 H 9.335339430638747 66.27344630314494 81.84389230851463 H 0.0 **** 0.06
20180 H 8.527200867938745 67.42780098152895 82.93064508361346 H 0.0 **** 0.06
20181 C 100.3660861124261 34.71387341461993 105.71232883629179 C 0.0 **** -0.24
20182 H 100.94668616055088 34.67608370529598 106.63395275128187 H 0.0 **** 0.06
20183 H 100.29466577956401 35.746341798608164 105.37016030316343 H 0.0 **** 0.06
20184 H 99.36621859698627 34.321995400530476 105.89756294664312 H 0.0 **** 0.06
20185 H 100.85738115551419 34.11042749820832 104.94969243425325 H 0.0 **** 0.06
20186 C 2.352365018455007 104.73894274457211 99.61179868435192 C 0.0 **** -0.24
20187 H 2.011853683553566 105.63067617158737 99.08715065007834 H 0.0 **** 0.06
20188 H 2.5218830795992595 103.93691340033081 98.89208152354553 H 0.0 **** 0.06
20189 H 1.5947214219344925 104.42868901081431 100.33060941565327 H 0.0 **** 0.06
20190 H 3.282514588244993 104.95847023611529 100.13653635383929 H 0.0 **** 0.06
20191 C 28.524205116633937 113.76438187134072 17.6158592850626 C 0.0 **** -0.24
20192 H 28.96713184903888 112.88127046439455 18.076435323520588 H 0.0 **** 0.06
20193 H 27.602271583694687 113.48423935232653 17.10674453059631 H 0.0 **** 0.06
20194 H 29.223836591634438 114.18673375351015 16.893885689919173 H 0.0 **** 0.06
20195 H 28.30546650308395 114.50431426698222 18.385145671803212 H 0.0 **** 0.06
20196 C 45.48895947965687 51.23818195297457 25.372885430628827 C 0.0 **** -0.24
20197 H 46.32468864057927 50.904127836755265 24.75942341080028 H 0.0 **** 0.06
20198 H 45.72759087464307 52.205056829213675 25.817109717652755 H 0.0 **** 0.06
20199 H 45.304269651721846 50.51039082992858 26.163012557845633 H 0.0 **** 0.06
20200 H 44.59761099489954 51.33423510036312 24.75188231352874 H 0.0 **** 0.06
20201 C 6.102168539574166 87.33108280790066 21.73383448163021 C 0.0 **** -0.24
20202 H 6.0358976757315475 86.35965959045868 22.222004674941843 H 0.0 **** 0.06
20203 H 5.552432712045942 87.30246497857041 20.792124990385872 H 0.0 **** 0.06
20204 H 7.1483728776233875 87.56834223448763 21.537018175217412 H 0.0 **** 0.06
20205 H 5.672292875025562 88.09463280541198 22.382671504143673 H 0.0 **** 0.06
20206 C 0.1700693195492704 76.03749977474567 109.68117167958405 C 0.0 **** -0.24
20207 H 1.1710802854556164 76.46007896652299 109.75860499196051 H 0.0 **** 0.06
20208 H -0.09728206741189638 75.92721889519092 108.62933823373783 H 0.0 **** 0.06
20209 H -0.5435059432243463 76.70070821233202 110.17017990571833 H 0.0 **** 0.06
20210 H 0.1491079298920397 75.06171637602591 110.16548919462332 H 0.0 **** 0.06
20211 C 102.69036506541931 29.806205793009667 7.9644764101986425 C 0.0 **** -0.24
20212 H 103.1034260423312 30.592037060143696 8.596758758942087 H 0.0 **** 0.06
20213 H 101.64629055772235 30.02890439538561 7.742643301360687 H 0.0 **** 0.06
20214 H 102.75492119550267 28.850103348173462 8.484880874836591 H 0.0 **** 0.06
20215 H 103.25677688889436 29.75296276309487 7.03419956479766 H 0.0 **** 0.06
20216 C 3.632035724059662 58.29203125871106 71.11604374553565 C 0.0 **** -0.24
20217 H 3.1486494252264805 58.381209114831194 70.14322715502104 H 0.0 **** 0.06
20218 H 3.224875370783778 59.044347822609275 71.79321321240238 H 0.0 **** 0.06
20219 H 4.704690758597991 58.44566255063495 71.00350636166064 H 0.0 **** 0.06
20220 H 3.4471254976864714 57.29851735069465 71.52348503646371 H 0.0 **** 0.06
20221 C 86.75701254749484 98.4993701587455 12.19087639119104 C 0.0 **** -0.24
20222 H 87.77854069448748 98.16869927392455 12.003094226922315 H 0.0 **** 0.06
20223 H 86.54877672767631 98.44509811437558 13.259739598137827 H 0.0 **** 0.06
20224 H 86.06242325058159 97.85477217497709 11.652791599260013 H 0.0 **** 0.06
20225 H 86.63975717633295 99.52732479656598 11.849058422368131 H 0.0 **** 0.06
20226 C 53.28727589811703 39.837727521163345 45.28304040209608 C 0.0 **** -0.24
20227 H 54.10190869326718 40.344935519713744 44.765942157932216 H 0.0 **** 0.06
20228 H 53.56115718990756 38.798008281640136 45.45951708116374 H 0.0 **** 0.06
20229 H 52.3872515889463 39.87878580103134 44.669876013629136 H 0.0 **** 0.06
20230 H 53.100191955927016 40.33168158740935 46.23594965710447 H 0.0 **** 0.06
20231 C 47.41755364588357 3.2802479248180685 89.97378901948983 C 0.0 **** -0.24
20232 H 46.478072903350345 3.7595622603704726 90.24836107194182 H 0.0 **** 0.06
20233 H 47.25786881916406 2.2075950170290284 89.8602563232609 H 0.0 **** 0.06
20234 H 48.15646441111109 3.456541317247094 90.75604454005838 H 0.0 **** 0.06
20235 H 47.776721754435464 3.696711341999867 89.03322931109503 H 0.0 **** 0.06
20236 C 53.272377672356896 58.83619127454898 56.424692991804186 C 0.0 **** -0.24
20237 H 53.30469309827711 59.148107238917845 57.46882914135292 H 0.0 **** 0.06
20238 H 54.13085638045811 58.20071497449766 56.208269139068115 H 0.0 **** 0.06
20239 H 53.300321845258395 59.716740123284694 55.7826548374424 H 0.0 **** 0.06
20240 H 52.35272275513741 58.2811663170269 56.2395707130621 H 0.0 **** 0.06
20241 C 40.97450250338554 79.7608878359427 111.88226757232445 C 0.0 **** -0.24
20242 H 39.89415035062285 79.83725424098054 112.00198174860253 H 0.0 **** 0.06
20243 H 41.27767887529092 80.28279428196589 110.97472315514725 H 0.0 **** 0.06
20244 H 41.259303492856674 78.71151898832466 111.81186516231207 H 0.0 **** 0.06
20245 H 41.46706113511962 80.21379177558589 112.74377105245779 H 0.0 **** 0.06
20246 C 40.52709496486784 40.39407394350253 63.30842910965708 C 0.0 **** -0.24
20247 H 39.83534954729703 39.66726153894333 62.88417086233623 H 0.0 **** 0.06
20248 H 40.827370356179586 40.07018681030461 64.30495906181099 H 0.0 **** 0.06
20249 H 40.039303377292924 41.36617954643453 63.37287394050269 H 0.0 **** 0.06
20250 H 41.40814970376931 40.47184210590099 62.671391598835946 H 0.0 **** 0.06
20251 C 20.38557259514326 16.249069319320455 122.6311752311334 C 0.0 **** -0.24
20252 H 20.52647334952485 15.230376848851648 122.99222058585748 H 0.0 **** 0.06
20253 H 21.21532839334472 16.52144802011594 121.97881084152752 H 0.0 **** 0.06
20254 H 20.350194802966712 16.93280971897852 123.47908241023305 H 0.0 **** 0.06
20255 H 19.45065524201405 16.31120543260687 122.0737635293915 H 0.0 **** 0.06
20256 C 7.7186409586043965 11.275965969497975 10.116650149265283 C 0.0 **** -0.24
20257 H 8.47002054796397 10.962664737880402 9.391494161445308 H 0.0 **** 0.06
20258 H 7.2996837642853905 10.396705931520728 10.60706511770438 H 0.0 **** 0.06
20259 H 6.925299127198599 11.820264765239642 9.605592796409383 H 0.0 **** 0.06
20260 H 8.181266129287962 11.922556603531461 10.86299235606026 H 0.0 **** 0.06
20261 C 62.192087188059524 42.802919270397695 89.90806354351724 C 0.0 **** -0.24
20262 H 63.2323303765132 42.744761020841395 90.22771308850136 H 0.0 **** 0.06
20263 H 61.846173659805665 43.834916730567386 89.98276509718437 H 0.0 **** 0.06
20264 H 61.57967016144557 42.16752871742227 90.54746195780893 H 0.0 **** 0.06
20265 H 62.110020248873205 42.466608327091706 88.87495171821683 H 0.0 **** 0.06
20266 C 19.788214211116824 111.37914841883457 42.74805692152421 C 0.0 **** -0.24
20267 H 19.09518158114635 110.79710498320833 43.35598649991357 H 0.0 **** 0.06
20268 H 19.239745531839688 111.8779871048859 41.949576393482744 H 0.0 **** 0.06
20269 H 20.53699937053294 110.71437139821222 42.315594770460564 H 0.0 **** 0.06
20270 H 20.281593498134256 112.12504597219231 43.37217302868248 H 0.0 **** 0.06
20271 C 117.05582935258883 41.79033243473717 119.65035022968637 C 0.0 **** -0.24
20272 H 116.65420293281915 40.99156220972998 119.02606060951885 H 0.0 **** 0.06
20273 H 118.07057907695219 41.5364166313438 119.9559265066068 H 0.0 **** 0.06
20274 H 116.42833301416056 41.90895628979351 120.53415614831185 H 0.0 **** 0.06
20275 H 117.06807016179113 42.72186001475532 119.08508425570393 H 0.0 **** 0.06
20276 C 48.30344544159547 116.98875761546564 121.87670402285514 C 0.0 **** -0.24
20277 H 47.65001819943606 117.44067436776486 122.62319329687334 H 0.0 **** 0.06
20278 H 47.742600247152836 116.82164439976833 120.9573950746022 H 0.0 **** 0.06
20279 H 48.677678647887575 116.0363838854256 122.25209835997337 H 0.0 **** 0.06
20280 H 49.14166161173273 117.6557181001083 121.67664038832989 H 0.0 **** 0.06
20281 C 38.105317800975804 89.14495577165792 79.16793327384596 C 0.0 **** -0.24
20282 H 37.2515638386203 89.71168135533173 79.54107598228404 H 0.0 **** 0.06
20283 H 38.02695354768808 89.03991537053912 78.08583314549966 H 0.0 **** 0.06
20284 H 38.11455335045369 88.15776174384013 79.62909999120228 H 0.0 **** 0.06
20285 H 39.02697262302357 89.67094807790909 79.41623267632903 H 0.0 **** 0.06
20286 C 107.12653072403418 48.31232402303846 80.3740039736739 C 0.0 **** -0.24
20287 H 106.08654918748036 47.98797899974926 80.40715250497999 H 0.0 **** 0.06
20288 H 107.34361364310607 48.73911325230392 79.39459746363855 H 0.0 **** 0.06
20289 H 107.77997792210834 47.45706521672241 80.55126751134117 H 0.0 **** 0.06
20290 H 107.29647079485105 49.064454229594105 81.1445126775717 H 0.0 **** 0.06
20291 C 27.7830409616015 63.70234462582272 63.85197368203393 C 0.0 **** -0.24
20292 H 27.839465679293426 62.61450454719247 63.80471499777059 H 0.0 **** 0.06
20293 H 27.231864038521394 63.99883709303438 64.74515643046863 H 0.0 **** 0.06
20294 H 27.271099618608844 64.07801510413688 62.965903202320476 H 0.0 **** 0.06
20295 H 28.791041338541504 64.11638175868222 63.89289654887824 H 0.0 **** 0.06
20296 C 81.26187485254016 78.95189806183183 45.43146079250096 C 0.0 **** -0.24
20297 H 81.2316362084863 78.26871131439182 44.582477494700186 H 0.0 **** 0.06
20298 H 80.64424578474728 78.55664387134823 46.237902721702994 H 0.0 **** 0.06
20299 H 80.88435209006818 79.92705910558684 45.12703753085776 H 0.0 **** 0.06
20300 H 82.29017827423542 79.0528294677305 45.778436363594494 H 0.0 **** 0.06
20301 C 68.42593987993254 6.516208801964012 60.39893432655086 C 0.0 **** -0.24
20302 H 68.80462269664699 5.781375610512114 59.68801895045911 H 0.0 **** 0.06
20303 H 69.19039968742652 7.271196343257127 60.58178434619029 H 0.0 **** 0.06
20304 H 68.17359703768898 6.018500737795996 61.33540798716183 H 0.0 **** 0.06
20305 H 67.53544610891325 6.991977930458628 59.988876190678525 H 0.0 **** 0.06
20306 C 97.64660923786587 93.8790100995366 6.79033510109474 C 0.0 **** -0.24
20307 H 97.88077415802653 94.21469021876825 5.780657076436228 H 0.0 **** 0.06
20308 H 98.48347933680188 93.30164536664608 7.184443694111451 H 0.0 **** 0.06
20309 H 96.75300160210807 93.2567377706134 6.767872495358688 H 0.0 **** 0.06
20310 H 97.47035038188025 94.74482530118362 7.428793395887283 H 0.0 **** 0.06
20311 C 31.665242789181256 93.36922592790728 62.066523601855174 C 0.0 **** -0.24
20312 H 32.07316161646649 92.5975719709059 61.41397819680039 H 0.0 **** 0.06
20313 H 31.685856570305276 94.33002144953244 61.551014888493704 H 0.0 **** 0.06
20314 H 32.26465534418963 93.4311146190631 62.97525433935336 H 0.0 **** 0.06
20315 H 30.636445562381823 93.11815724269252 62.32697508848488 H 0.0 **** 0.06
20316 C 63.866960223891915 23.42667215387027 111.5335746991982 C 0.0 **** -0.24
20317 H 64.84447300960153 23.296351852826945 111.06790896932137 H 0.0 **** 0.06
20318 H 63.198115297127536 22.63133529473251 111.20390076755314 H 0.0 **** 0.06
20319 H 63.453963604917625 24.392948778926993 111.24415044090094 H 0.0 **** 0.06
20320 H 63.973435222839804 23.387012428523633 112.61765094720946 H 0.0 **** 0.06
20321 C 70.96087213616147 39.73700185015707 23.355240919038636 C 0.0 **** -0.24
20322 H 70.42604197701348 39.257595436481004 24.17523502237873 H 0.0 **** 0.06
20323 H 70.29022524096814 40.41983837701974 22.833782253079676 H 0.0 **** 0.06
20324 H 71.31792724308832 38.97636324610956 22.660333197618456 H 0.0 **** 0.06
20325 H 71.81069319748718 40.29319448291686 23.751509861075135 H 0.0 **** 0.06
20326 C 59.30385168025165 44.5999817141666 68.52287387203333 C 0.0 **** -0.24
20327 H 58.718666130525556 44.721501752753404 69.43499554234012 H 0.0 **** 0.06
20328 H 58.93097782176013 43.74006685087062 67.96471641230892 H 0.0 **** 0.06
20329 H 60.350148120295664 44.438970530319516 68.78160975989343 H 0.0 **** 0.06
20330 H 59.2137946113157 45.4975064822399 67.91124561521377 H 0.0 **** 0.06
20331 C 91.66151883806924 4.173059542646911 11.622291531038055 C 0.0 **** -0.24
20332 H 92.75017291312551 4.154661639579189 11.664527841629923 H 0.0 **** 0.06
20333 H 91.25657332354359 3.534695808980871 12.407137355287897 H 0.0 **** 0.06
20334 H 91.32972388125646 3.808582925866645 10.650149553043342 H 0.0 **** 0.06
20335 H 91.30972394070378 5.194374542016774 11.766361387050935 H 0.0 **** 0.06
20336 C 70.91368625405713 85.63123448139606 2.6496355022842586 C 0.0 **** -0.24
20337 H 70.11135447280265 84.89575336128769 2.596247007203001 H 0.0 **** 0.06
20338 H 70.49944335610991 86.60283933739595 2.91840666969601 H 0.0 **** 0.06
20339 H 71.40617623353461 85.70097404215983 1.6804842948653835 H 0.0 **** 0.06
20340 H 71.63845778308666 85.32309128228758 3.4039790541406134 H 0.0 **** 0.06
20341 C 35.41637043970595 120.47838515465865 34.53097959177648 C 0.0 **** -0.24
20342 H 35.49057594658706 119.39164232219079 34.518345963774344 H 0.0 **** 0.06
20343 H 34.593692213776386 120.77940048882434 35.18000537281374 H 0.0 **** 0.06
20344 H 35.23387003625301 120.84178690999377 33.51909572422556 H 0.0 **** 0.06
20345 H 36.348703534332316 120.90134935574461 34.905609323672174 H 0.0 **** 0.06
20346 C 102.05968595441203 108.06190565365796 93.50853898886959 C 0.0 **** -0.24
20347 H 102.37200977615649 108.71825982291404 94.32095032451232 H 0.0 **** 0.06
20348 H 102.93677104312309 107.58714460115303 93.06768201546444 H 0.0 **** 0.06
20349 H 101.54189799336643 108.64787218162667 92.74774328348403 H 0.0 **** 0.06
20350 H 101.38794761785036 107.29672093413555 93.89719187255346 H 0.0 **** 0.06
20351 C 94.58240687751069 23.370041346215572 84.78449155297793 C 0.0 **** -0.24
20352 H 94.47587792606467 22.353472270692237 84.40583203753627 H 0.0 **** 0.06
20353 H 95.04823805788308 23.99435866721987 84.02119318722441 H 0.0 **** 0.06
20354 H 95.20607715251128 23.361298457764434 85.67758897154025 H 0.0 **** 0.06
20355 H 93.59941226888489 23.770339719109842 85.03147719774904 H 0.0 **** 0.06
20356 C 27.2817082239684 3.115438444060885 82.88933059747336 C 0.0 **** -0.24
20357 H 26.805964122087282 3.9820739567581995 83.34909858709167 H 0.0 **** 0.06
20358 H 27.95830286951005 2.6499074862565806 83.60644131274438 H 0.0 **** 0.06
20359 H 27.845837243744576 3.4340447516939605 82.01245681528422 H 0.0 **** 0.06
20360 H 26.517888974835174 2.3975734283784504 82.58982246291654 H 0.0 **** 0.06
20361 C 58.34670747971566 80.74919892847458 85.67063873548614 C 0.0 **** -0.24
20362 H 59.08972321136512 81.36808918041675 85.16631177574646 H 0.0 **** 0.06
20363 H 58.069770764267645 81.21432868888758 86.61699887861292 H 0.0 **** 0.06
20364 H 58.765875276963676 79.76103705056971 85.8595449977939 H 0.0 **** 0.06
20365 H 57.46392070356194 80.65529555557919 85.03863734061434 H 0.0 **** 0.06
20366 C 67.98041070304961 71.50444655483486 87.21957840886313 C 0.0 **** -0.24
20367 H 67.60905702032485 72.13836413095291 88.02464366462789 H 0.0 **** 0.06
20368 H 68.7697959469757 70.85671252092084 87.60223196405781 H 0.0 **** 0.06
20369 H 68.37871058167465 72.12903286800258 86.41990392488941 H 0.0 **** 0.06
20370 H 67.16500083319184 70.8941550660029 86.83249428267504 H 0.0 **** 0.06
20371 C 104.76206628372961 5.96881373350314 19.380069247654514 C 0.0 **** -0.24
20372 H 105.50750825356258 6.515738429618025 18.803377184652454 H 0.0 **** 0.06
20373 H 103.8132378200232 6.504288852168472 19.348763232813297 H 0.0 **** 0.06
20374 H 105.09659731222405 5.882382824075947 20.41424373113474 H 0.0 **** 0.06
20375 H 104.63232235796823 4.973072608192211 18.95562104611054 H 0.0 **** 0.06
20376 C 35.49669353807923 24.022322496007718 71.97940097343135 C 0.0 **** -0.24
20377 H 34.768495792966235 23.277491590175927 71.65969165559451 H 0.0 **** 0.06
20378 H 34.998110835458306 24.782636718986936 72.58133930052725 H 0.0 **** 0.06
20379 H 35.94651133633414 24.49053226930775 71.10351358289606 H 0.0 **** 0.06
20380 H 36.273621276098595 23.540325912145278 72.57271177222373 H 0.0 **** 0.06
20381 C 33.13225461776457 43.86598786296984 38.10708358848977 C 0.0 **** -0.24
20382 H 33.72078155457115 44.48134891356484 38.78780597584429 H 0.0 **** 0.06
20383 H 32.08575539813876 44.16941386025942 38.15634069948305 H 0.0 **** 0.06
20384 H 33.2212282522124 42.818644305747334 38.39459578224455 H 0.0 **** 0.06
20385 H 33.50124615915669 43.99674572243423 37.089199104553245 H 0.0 **** 0.06
20386 C 36.45628294971726 45.03601218665477 4.236152529373413 C 0.0 **** -0.24
20387 H 35.398607422503595 44.94142943274039 4.483960444229609 H 0.0 **** 0.06
20388 H 36.64804022825962 44.56221104029373 3.273396718173842 H 0.0 **** 0.06
20389 H 37.05414697974327 44.54970483902309 5.007317831915913 H 0.0 **** 0.06
20390 H 36.7227329600963 46.09189496877525 4.181351843341474 H 0.0 **** 0.06
20391 C 47.006147808429034 108.30937559586849 87.48363172127245 C 0.0 **** -0.24
20392 H 46.14849645763371 107.69761511127908 87.76317311565472 H 0.0 **** 0.06
20393 H 47.622160652333264 107.76464491944094 86.76793289246712 H 0.0 **** 0.06
20394 H 47.59548549975827 108.53568156676337 88.37213091347132 H 0.0 **** 0.06
20395 H 46.65787902884952 109.23788465660505 87.03222075579762 H 0.0 **** 0.06
20396 C 108.50053268539341 52.09294866822257 40.43793794902015 C 0.0 **** -0.24
20397 H 109.36898517173279 52.60922621021805 40.84772806588305 H 0.0 **** 0.06
20398 H 108.4208881072953 51.103821414438244 40.88956852660672 H 0.0 **** 0.06
20399 H 108.61425005080412 51.99235070410273 39.358273846506876 H 0.0 **** 0.06
20400 H 107.6001943660024 52.6667306746812 40.65650652235871 H 0.0 **** 0.06
20401 C 1.0120044147051317 96.85637859067458 17.577899039398176 C 0.0 **** -0.24
20402 H 1.9323873391842454 97.39390011534442 17.808743315720207 H 0.0 **** 0.06
20403 H 0.16003941026495738 97.40647231194578 17.978917396526825 H 0.0 **** 0.06
20404 H 1.048255935812847 95.86474392510792 18.028175185116282 H 0.0 **** 0.06
20405 H 0.9085272316832658 96.76173228812092 16.49710134246922 H 0.0 **** 0.06
20406 C 7.154043678816208 24.850012126005424 18.814266021381343 C 0.0 **** -0.24
20407 H 7.694194384216246 24.350276158733152 18.01079838076498 H 0.0 **** 0.06
20408 H 6.9667762928306445 25.8875298325749 18.535717786040948 H 0.0 **** 0.06
20409 H 7.749120445446692 24.820794490094386 19.727180648448382 H 0.0 **** 0.06
20410 H 6.2036664642720325 24.341543257328738 18.983752956859803 H 0.0 **** 0.06
20411 C 77.00145367162045 69.35040946021411 66.15218087664502 C 0.0 **** -0.24
20412 H 75.95988173855895 69.46107803041184 66.45224329070601 H 0.0 **** 0.06
20413 H 77.23808334712791 68.2915881575571 66.04410677091323 H 0.0 **** 0.06
20414 H 77.64685101649306 69.7917782551624 66.91147987622878 H 0.0 **** 0.06
20415 H 77.1615783580279 69.85699271692295 65.20010385656633 H 0.0 **** 0.06
20416 C 44.6922398890581 71.86146240979747 57.1664474839142 C 0.0 **** -0.24
20417 H 44.781000600179524 71.00923371387378 57.839173905951554 H 0.0 **** 0.06
20418 H 45.68255964191596 72.14272024724343 56.80502795414637 H 0.0 **** 0.06
20419 H 44.24900835943771 72.70148131942969 57.700190032843125 H 0.0 **** 0.06
20420 H 44.059737013140904 71.5932504800551 56.32107329383024 H 0.0 **** 0.06
20421 C 82.17344772152663 76.29652237566285 55.20002630208273 C 0.0 **** -0.24
20422 H 82.59032558271699 77.18304501779772 54.72024439015266 H 0.0 **** 0.06
20423 H 82.76632277747672 75.42369810448602 54.928453049323565 H 0.0 **** 0.06
20424 H 81.14441258029711 76.15554489199528 54.86937670333643 H 0.0 **** 0.06
20425 H 82.19298493835319 76.42751690831491 56.28239357431593 H 0.0 **** 0.06
20426 C 59.99192446878675 64.27970024373224 96.0205444202515 C 0.0 **** -0.24
20427 H 59.418031525873744 63.83498303772601 95.20806083348157 H 0.0 **** 0.06
20428 H 59.71425623055842 63.80631925493564 96.96295674316707 H 0.0 **** 0.06
20429 H 59.77837038207571 65.34811915481774 96.07383527530084 H 0.0 **** 0.06
20430 H 61.05626786851974 64.13127094387195 95.83823424746208 H 0.0 **** 0.06
20431 C 38.09746513635045 120.01912041030889 122.18087536296551 C 0.0 **** -0.24
20432 H 38.317807655449656 120.27366914830674 123.21863514500032 H 0.0 **** 0.06
20433 H 37.171371461189636 120.50714794277727 121.87672116823163 H 0.0 **** 0.06
20434 H 37.98735394795099 118.93870341587765 122.0884753321249 H 0.0 **** 0.06
20435 H 38.913546749898245 120.35782431318661 121.54301756862039 H 0.0 **** 0.06
20436 C 45.46859435514153 74.66084661809083 41.46252411998242 C 0.0 **** -0.24
20437 H 44.4248421604579 74.34657940060066 41.41772772083789 H 0.0 **** 0.06
20438 H 46.102883119816624 73.8693719886763 41.062073299667674 H 0.0 **** 0.06
20439 H 45.74384577254972 74.8577359103731 42.499056048494765 H 0.0 **** 0.06
20440 H 45.600807486435656 75.56764272377444 40.87212031515028 H 0.0 **** 0.06
20441 C 115.16237197036618 38.334821348182956 77.01120715310651 C 0.0 **** -0.24
20442 H 115.1000184018948 38.00034195557668 75.97555966954098 H 0.0 **** 0.06
20443 H 114.6389891564005 37.6265091999917 77.65357112240903 H 0.0 **** 0.06
20444 H 114.70195547176566 39.31853199861006 77.10229571244312 H 0.0 **** 0.06
20445 H 116.20859544968206 38.3942401518386 77.31097699680438 H 0.0 **** 0.06
20446 C 78.80824330565969 54.00336981775708 17.79749649856086 C 0.0 **** -0.24
20447 H 78.86934876293122 54.44306190755845 16.80158628032831 H 0.0 **** 0.06
20448 H 79.68440420034761 54.29572571181493 18.377511435752353 H 0.0 **** 0.06
20449 H 78.77423486948504 52.91701647223197 17.713187648581084 H 0.0 **** 0.06
20450 H 77.90674178809371 54.35768891146737 18.296744021313884 H 0.0 **** 0.06
20451 C 110.41021233321413 116.9382131369166 105.30083518709714 C 0.0 **** -0.24
20452 H 110.31527233818568 116.98130962237161 104.21557012681899 H 0.0 **** 0.06
20453 H 110.4057914681739 115.8980880970248 105.62400137813859 H 0.0 **** 0.06
20454 H 109.57350831725088 117.46594898963264 105.7592284920062 H 0.0 **** 0.06
20455 H 111.3452818178821 117.4095074935267 105.60253998289767 H 0.0 **** 0.06
20456 C 106.19196499723719 27.209679190624655 1.0904158853318933 C 0.0 **** -0.24
20457 H 105.4253822341534 27.546872245388528 1.787839587653906 H 0.0 **** 0.06
20458 H 107.17290715636074 27.527279127379202 1.446139058923933 H 0.0 **** 0.06
20459 H 106.00513739715305 27.641249797666177 0.10757646099042972 H 0.0 **** 0.06
20460 H 106.1657313466659 26.12193099907887 1.020739261369016 H 0.0 **** 0.06
20461 C 114.9632860125881 11.696337621965483 27.098955334544847 C 0.0 **** -0.24
20462 H 115.15123980684643 11.753316568593164 26.02653800412559 H 0.0 **** 0.06
20463 H 115.91277897590777 11.725410465671558 27.6358837791565 H 0.0 **** 0.06
20464 H 114.44489571912268 10.764909356879599 27.327822219858092 H 0.0 **** 0.06
20465 H 114.34601539579009 12.540450905795012 27.40604142164151 H 0.0 **** 0.06
20466 C 6.3551101162777 122.62164758134642 115.88920799389544 C 0.0 **** -0.24
20467 H 6.155579099386387 123.54192267870545 115.33977257895489 H 0.0 **** 0.06
20468 H 6.274938650396621 121.77058765894289 115.21288730387083 H 0.0 **** 0.06
20469 H 5.628903567517398 122.51562214373504 116.6949590536556 H 0.0 **** 0.06
20470 H 7.360357764616168 122.6600080361116 116.30881348474661 H 0.0 **** 0.06
20471 C 76.55278431062843 51.001399420728745 89.77657809188355 C 0.0 **** -0.24
20472 H 77.00512443417313 51.80165755895575 89.19105401839647 H 0.0 **** 0.06
20473 H 76.68838069099482 50.051900076987465 89.25813158405404 H 0.0 **** 0.06
20474 H 75.48708306175362 51.19973041897421 89.89946383825085 H 0.0 **** 0.06
20475 H 77.02907072919498 50.95318958993556 90.75541778466584 H 0.0 **** 0.06
20476 C 59.77350786026734 16.860911045212788 82.06914393841458 C 0.0 **** -0.24
20477 H 60.52832366698764 16.593823413569766 81.32988187689074 H 0.0 **** 0.06
20478 H 60.09470142357184 17.751363347060575 82.61025812706276 H 0.0 **** 0.06
20479 H 59.644695536787005 16.03586072101531 82.77027981749785 H 0.0 **** 0.06
20480 H 58.826981317527135 17.06140777543456 81.56652606223764 H 0.0 **** 0.06
20481 C 117.26633068525561 76.53444972113687 31.20628536488894 C 0.0 **** -0.24
20482 H 118.02940313988117 76.25830005022593 31.933890964633576 H 0.0 **** 0.06
20483 H 116.53225339606925 75.73169387009526 31.127299382389623 H 0.0 **** 0.06
20484 H 117.73262924422548 76.69707156320271 30.234736137102658 H 0.0 **** 0.06
20485 H 116.77105846304173 77.44963230633655 31.530102240593436 H 0.0 **** 0.06
20486 C 53.78419429654565 82.89250612934913 17.152421258361073 C 0.0 **** -0.24
20487 H 53.69255007986945 81.81138196133844 17.258760452241916 H 0.0 **** 0.06
20488 H 53.40355131667161 83.19407721838942 16.17651658267647 H 0.0 **** 0.06
20489 H 54.83270561438408 83.17867023716005 17.238597134979102 H 0.0 **** 0.06
20490 H 53.208197627001226 83.38427895027456 17.93639094208703 H 0.0 **** 0.06
20491 C 38.58553413457787 8.349644575709817 87.99552015218657 C 0.0 **** -0.24
20492 H 38.95680622941998 7.362991921681555 88.27137095068622 H 0.0 **** 0.06
20493 H 38.73035192818645 8.50632736970968 86.92654613716996 H 0.0 **** 0.06
20494 H 39.13031657806937 9.111100997981737 88.5529681709304 H 0.0 **** 0.06
20495 H 37.52302739056623 8.416051448826721 88.23213955751453 H 0.0 **** 0.06
20496 C 58.355979446256356 68.46329415839892 8.894244044184571 C 0.0 **** -0.24
20497 H 59.18793129853773 68.66165390171682 9.57069042838815 H 0.0 **** 0.06
20498 H 57.427949958111355 68.41868907599473 9.464680556014343 H 0.0 **** 0.06
20499 H 58.51792487570208 67.5119574359586 8.388276455038056 H 0.0 **** 0.06
20500 H 58.29094051585116 69.26132187510336 8.155357198687476 H 0.0 **** 0.06
20501 C 62.73875896481522 18.931174784157577 78.50624773880003 C 0.0 **** -0.24
20502 H 63.32662645548987 19.404065963947517 77.7197874066122 H 0.0 **** 0.06
20503 H 61.70469551240586 19.27088936144628 78.43961464746405 H 0.0 **** 0.06
20504 H 63.14901594636254 19.201057057541732 79.47908732822998 H 0.0 **** 0.06
20505 H 62.77347488992234 17.848191727405094 78.38443773684943 H 0.0 **** 0.06
20506 C 38.23439278151088 53.338657994171335 119.60612415347764 C 0.0 **** -0.24
20507 H 38.536489632975 54.36558185183383 119.81512676295064 H 0.0 **** 0.06
20508 H 38.871626123180505 52.653186951144896 120.16421483390336 H 0.0 **** 0.06
20509 H 38.3344172131607 53.1414691937758 118.53863418301232 H 0.0 **** 0.06
20510 H 37.196214967093034 53.19704584642876 119.9057571440524 H 0.0 **** 0.06
20511 C 59.787698229962665 94.90412310400544 64.16437734672928 C 0.0 **** -0.24
20512 H 59.144203286054626 94.70435782086543 63.3083007445889 H 0.0 **** 0.06
20513 H 60.604974009750144 94.18200337663626 64.18118853350444 H 0.0 **** 0.06
20514 H 59.2070948437892 94.81849735724023 65.08269050023841 H 0.0 **** 0.06
20515 H 60.19491722186013 95.91287724768739 64.08478469059028 H 0.0 **** 0.06
20516 C 112.09372749517195 6.411341953223868 120.7345915178586 C 0.0 **** -0.24
20517 H 111.45060126515514 5.88919363428241 121.44280398486302 H 0.0 **** 0.06
20518 H 112.93788026212387 6.850768447181938 121.26589047710937 H 0.0 **** 0.06
20519 H 111.52435850852694 7.19995486057509 120.24111218433343 H 0.0 **** 0.06
20520 H 112.4602125673301 5.705989673762524 119.98804946169012 H 0.0 **** 0.06
20521 C 18.13100044285207 65.5006853521424 50.08616113454414 C 0.0 **** -0.24
20522 H 17.111270882073274 65.28262763515332 49.76926277788405 H 0.0 **** 0.06
20523 H 18.81901110073743 64.81179376243702 49.595806307163 H 0.0 **** 0.06
20524 H 18.207420807281725 65.38243079525094 51.16772620450112 H 0.0 **** 0.06
20525 H 18.385058811203322 66.52465211391052 49.81448213939899 H 0.0 **** 0.06
20526 C 108.31041094689195 29.460315463827982 116.06785228530029 C 0.0 **** -0.24
20527 H 107.91231014619532 29.475456584324093 117.08244265995305 H 0.0 **** 0.06
20528 H 108.4693146882245 28.427101635218918 115.75606707139028 H 0.0 **** 0.06
20529 H 109.25833335804188 29.997791253192474 116.04237667930136 H 0.0 **** 0.06
20530 H 107.60194871546159 29.93906478249636 115.39210938603196 H 0.0 **** 0.06
20531 C 16.50553471366778 88.14137681696798 33.549006369902855 C 0.0 **** -0.24
20532 H 17.49125970049048 88.38331170385698 33.151784916968154 H 0.0 **** 0.06
20533 H 16.552816172064077 87.19275720357183 34.08466061854418 H 0.0 **** 0.06
20534 H 15.793000284592942 88.06009135055422 32.727729602464194 H 0.0 **** 0.06
20535 H 16.18569721214589 88.92840318880894 34.231009684576804 H 0.0 **** 0.06
20536 C 65.45449125522805 5.501934188930363 101.5099189972658 C 0.0 **** -0.24
20537 H 65.9086392307994 6.1625033153320885 100.7710596076505 H 0.0 **** 0.06
20538 H 66.08088473366752 4.618770491744684 101.63989317389513 H 0.0 **** 0.06
20539 H 64.46537443549141 5.19990724838047 101.1673584808488 H 0.0 **** 0.06
20540 H 65.36606285134201 6.027287091988995 102.46066599479485 H 0.0 **** 0.06
20541 C 28.578492533934877 117.04077226923786 68.40995909967774 C 0.0 **** -0.24
20542 H 29.31899381586294 117.05881790868656 67.60927662344113 H 0.0 **** 0.06
20543 H 28.124381016048005 116.0513652076724 68.46121830886332 H 0.0 **** 0.06
20544 H 27.809000086173626 117.78605942158089 68.20919169674147 H 0.0 **** 0.06
20545 H 29.065924390224552 117.26765853057165 69.3588848176953 H 0.0 **** 0.06
20546 C 52.7795283878595 37.70202591132215 87.15031661361616 C 0.0 **** -0.24
20547 H 52.39870466233364 37.949797682647784 88.14127503150917 H 0.0 **** 0.06
20548 H 52.59274930485108 36.64761439815163 86.94254953074997 H 0.0 **** 0.06
20549 H 53.852244348048345 37.89473347417635 87.11521037539106 H 0.0 **** 0.06
20550 H 52.27562383831534 38.31490642614227 86.40379150454606 H 0.0 **** 0.06
20551 C 117.74859176505169 70.51256216164634 72.90270481973539 C 0.0 **** -0.24
20552 H 117.21093761600187 71.43038708549378 73.13874825550192 H 0.0 **** 0.06
20553 H 117.06721914668412 69.80411162989964 72.43120153291306 H 0.0 **** 0.06
20554 H 118.14599887630162 70.077890021413 73.82035992676725 H 0.0 **** 0.06
20555 H 118.56952682012573 70.73658081854978 72.22248328637022 H 0.0 **** 0.06
20556 C 93.61236169570492 103.69063779463093 116.37966450972402 C 0.0 **** -0.24
20557 H 94.67896914433919 103.9096997915106 116.34554048746668 H 0.0 **** 0.06
20558 H 93.22724705670583 103.60334540984698 115.36353021568124 H 0.0 **** 0.06
20559 H 93.09262652931892 104.4962684226646 116.89714949821231 H 0.0 **** 0.06
20560 H 93.45038708466228 102.75316354152847 116.911042288045 H 0.0 **** 0.06
20561 C 74.5418765340863 88.55969464440852 13.792342215961554 C 0.0 **** -0.24
20562 H 73.6633151949477 88.02936128400637 13.423224755044089 H 0.0 **** 0.06
20563 H 74.24294792782237 89.53937280441562 14.166567522193134 H 0.0 **** 0.06
20564 H 75.25881279231888 88.68302712037521 12.980511789796452 H 0.0 **** 0.06
20565 H 74.99977726443706 87.98703183142496 14.597664042761608 H 0.0 **** 0.06
20566 C 83.36099369585332 80.19739231993543 38.03926115299777 C 0.0 **** -0.24
20567 H 83.50158906224675 79.2257776338856 38.512396386569435 H 0.0 **** 0.06
20568 H 84.25236361836872 80.80727464222812 38.190890373276545 H 0.0 **** 0.06
20569 H 82.49975178591743 80.69579412446089 38.48475994228056 H 0.0 **** 0.06
20570 H 83.19056950215645 80.0607769162111 36.9718100288996 H 0.0 **** 0.06
20571 C 36.559947189400205 76.94058392557145 63.07246842053002 C 0.0 **** -0.24
20572 H 35.616872221397585 77.47814385059414 63.17810525014017 H 0.0 **** 0.06
20573 H 37.37977911198274 77.5766578876082 63.40717231684122 H 0.0 **** 0.06
20574 H 36.710130036962795 76.67366453617905 62.0261934553908 H 0.0 **** 0.06
20575 H 36.53104641092375 76.03494211207672 63.67833786161972 H 0.0 **** 0.06
20576 C 107.8778928304009 26.146001850424227 119.62497693999593 C 0.0 **** -0.24
20577 H 107.62741120994784 25.09641303041795 119.7830322018617 H 0.0 **** 0.06
20578 H 107.84293253765637 26.674286901907806 120.57844843117849 H 0.0 **** 0.06
20579 H 107.15984121244207 26.590948169590007 118.9361919442007 H 0.0 **** 0.06
20580 H 108.88042467844042 26.221185918865928 119.20387793078294 H 0.0 **** 0.06
20581 C 113.4231183493271 37.81632268708509 19.77322553484788 C 0.0 **** -0.24
20582 H 112.82832305722404 36.95366088124982 20.07338598557125 H 0.0 **** 0.06
20583 H 112.84182036160325 38.43862412569743 19.09277737209598 H 0.0 **** 0.06
20584 H 114.32977339907877 37.476854282062305 19.27245218473675 H 0.0 **** 0.06
20585 H 113.69168286568527 38.396719517700916 20.656503411820367 H 0.0 **** 0.06
20586 C 5.604054764154313 62.37988306817187 15.98158093827243 C 0.0 **** -0.24
20587 H 4.888714564619789 63.20292670713459 15.985794442410509 H 0.0 **** 0.06
20588 H 5.092491067444854 61.45499240342553 15.715113355145888 H 0.0 **** 0.06
20589 H 6.045818522428448 62.278285139773025 16.973366614900897 H 0.0 **** 0.06
20590 H 6.388769350417334 62.58451614845995 15.253895293073242 H 0.0 **** 0.06
20591 C 87.32240375046871 94.08832060109151 91.66698282441291 C 0.0 **** -0.24
20592 H 87.02732962369149 94.61863398915196 90.76125155645465 H 0.0 **** 0.06
20593 H 86.52263329610724 94.15714832243546 92.40453696367814 H 0.0 **** 0.06
20594 H 88.22967217972212 94.53873323016768 92.07106778601243 H 0.0 **** 0.06
20595 H 87.51082562886134 93.04155050847277 91.43034248665856 H 0.0 **** 0.06
20596 C 121.26339594001053 113.36941821775113 101.17784757149442 C 0.0 **** -0.24
20597 H 120.58800796343286 112.60549498660455 101.56252468929407 H 0.0 **** 0.06
20598 H 122.05775803544554 113.55033064633614 101.90226230541623 H 0.0 **** 0.06
20599 H 120.7086638247873 114.29215536630502 101.00920731298032 H 0.0 **** 0.06
20600 H 121.69859718550606 113.03037119021104 100.23787411066596 H 0.0 **** 0.06
20601 C 107.68609037959857 13.711100075701978 80.01647505352275 C 0.0 **** -0.24
20602 H 107.95225302129711 14.180264693069006 79.06947076584663 H 0.0 **** 0.06
20603 H 106.9532964438655 14.329377197015518 80.53551224755307 H 0.0 **** 0.06
20604 H 108.5785232345587 13.608632078375678 80.63402023318605 H 0.0 **** 0.06
20605 H 107.26047239670345 12.725181082341294 79.8266270537905 H 0.0 **** 0.06
20606 C 9.334705841496483 62.45784592189457 12.531839120710572 C 0.0 **** -0.24
20607 H 8.275929966568327 62.42558447643439 12.790620931762206 H 0.0 **** 0.06
20608 H 9.683605996294425 61.451225920094735 12.302228662128371 H 0.0 **** 0.06
20609 H 9.901546498138462 62.85809684503848 13.371824204470897 H 0.0 **** 0.06
20610 H 9.475309914278235 63.09845462865771 11.660638703835772 H 0.0 **** 0.06
20611 C 30.093561308096355 50.283192109983105 118.57231554675805 C 0.0 **** -0.24
20612 H 29.3608319919868 50.20900321882069 117.7688562273182 H 0.0 **** 0.06
20613 H 30.88894456177212 49.55548930026394 118.406097843439 H 0.0 **** 0.06
20614 H 29.60793417032039 50.08021248604283 119.52642122364985 H 0.0 **** 0.06
20615 H 30.516836906583023 51.287290588053885 118.58581046745351 H 0.0 **** 0.06
20616 C 18.9864721068525 59.130212738158264 54.52346848606982 C 0.0 **** -0.24
20617 H 19.71995363944857 58.33376800997826 54.643554661738506 H 0.0 **** 0.06
20618 H 18.24774285596294 59.0661894803487 55.322963511755944 H 0.0 **** 0.06
20619 H 18.488200832538976 59.023357023882426 53.55933634464111 H 0.0 **** 0.06
20620 H 19.48801359191705 60.096091144388 54.56798904447871 H 0.0 **** 0.06
20621 C 65.03324631103683 115.20405931124279 12.155792998896729 C 0.0 **** -0.24
20622 H 64.6403844157835 116.19906768680696 11.942889071210345 H 0.0 **** 0.06
20623 H 64.85525160589137 114.55239058046688 11.300099768150602 H 0.0 **** 0.06
20624 H 64.53210881862546 114.79673604329828 13.03443237395804 H 0.0 **** 0.06
20625 H 66.10463498817305 115.27005057205052 12.346527403948471 H 0.0 **** 0.06
20626 C 16.67150293939281 87.98895854612243 67.98617104964873 C 0.0 **** -0.24
20627 H 17.25766243048301 88.48516606670955 68.76139129266639 H 0.0 **** 0.06
20628 H 16.61186913470624 88.63311697534678 67.1091785586737 H 0.0 **** 0.06
20629 H 15.667767343867666 87.79059101946683 68.36276677287415 H 0.0 **** 0.06
20630 H 17.150884416601656 87.04795931393346 67.71538330653593 H 0.0 **** 0.06
20631 C 53.64399817218479 81.27668505455537 109.07219979992064 C 0.0 **** -0.24
20632 H 53.291428261159034 80.41115622585119 109.63251613428022 H 0.0 **** 0.06
20633 H 54.17288922798728 81.95410938341692 109.74396371583268 H 0.0 **** 0.06
20634 H 52.793220724496386 81.79489325087283 108.63033432115441 H 0.0 **** 0.06
20635 H 54.31954301369006 80.94747374990732 108.2818477991041 H 0.0 **** 0.06
20636 C 68.94468329369354 82.21075098663374 102.52459000943358 C 0.0 **** -0.24
20637 H 69.23047203997052 81.2024733829397 102.82564356230083 H 0.0 **** 0.06
20638 H 69.76588812312693 82.89699321475362 102.73042571513221 H 0.0 **** 0.06
20639 H 68.0622631215831 82.52005769907558 103.08454278816089 H 0.0 **** 0.06
20640 H 68.72039098852599 82.22049569445886 101.45761570211769 H 0.0 **** 0.06
20641 C 39.39785180149835 54.45224211375333 11.750794857692398 C 0.0 **** -0.24
20642 H 40.063348980564626 55.158270238338304 11.253761722113666 H 0.0 **** 0.06
20643 H 38.41603972519346 54.48325164729633 11.276686564762684 H 0.0 **** 0.06
20644 H 39.30285878764869 54.71992514811663 12.803109566469459 H 0.0 **** 0.06
20645 H 39.809690669657584 53.44575460367443 11.668357964147077 H 0.0 **** 0.06
20646 C 92.46297576096364 118.77118860011194 18.524153341557763 C 0.0 **** -0.24
20647 H 93.3151946014053 119.3798414521124 18.824905451974246 H 0.0 **** 0.06
20648 H 92.12941275129793 119.0775024041877 17.53280492254916 H 0.0 **** 0.06
20649 H 91.65118876119254 118.90410983089049 19.23872936763064 H 0.0 **** 0.06
20650 H 92.75720931918559 117.7213869763221 18.50052380581087 H 0.0 **** 0.06
20651 C 30.546264356165807 108.24809725738604 116.94260410618321 C 0.0 **** -0.24
20652 H 30.450039788213275 108.40038811068706 115.86771413830573 H 0.0 **** 0.06
20653 H 29.60405155506932 107.87236807209447 117.34190444582384 H 0.0 **** 0.06
20654 H 30.79165719088074 109.19584689152722 117.422191570767 H 0.0 **** 0.06
20655 H 31.338748714771782 107.525960500856 117.13762755206696 H 0.0 **** 0.06
20656 C 51.90619882083801 19.70111895973884 53.37814664560318 C 0.0 **** -0.24
20657 H 51.553205523702665 19.31748372343318 52.42086566785176 H 0.0 **** 0.06
20658 H 51.062320789402804 20.100392620030966 53.9415839464269 H 0.0 **** 0.06
20659 H 52.63507956706981 20.49287882791494 53.20476180139366 H 0.0 **** 0.06
20660 H 52.37225177758213 18.89406763156436 53.943111160554764 H 0.0 **** 0.06
20661 C 44.458645396650525 48.27179439613862 21.32365170639079 C 0.0 **** -0.24
20662 H 44.69300435524519 47.74518854301257 20.398757518458652 H 0.0 **** 0.06
20663 H 44.09375359300867 47.56007968805556 22.065056012612075 H 0.0 **** 0.06
20664 H 43.69124002925349 49.02184628601453 21.130311756093107 H 0.0 **** 0.06
20665 H 45.35722420101894 48.761614258207665 21.700910043097593 H 0.0 **** 0.06
20666 C 20.940388411744152 104.19751762336102 8.735842661565641 C 0.0 **** -0.24
20667 H 20.84697941371489 104.29967887243652 7.655064738232483 H 0.0 **** 0.06
20668 H 21.954936981473082 103.88458170283198 8.984966135150898 H 0.0 **** 0.06
20669 H 20.231688125137143 103.45008884752878 9.093297959607412 H 0.0 **** 0.06
20670 H 20.728687883038752 105.15568637550368 9.210714933550378 H 0.0 **** 0.06
20671 C 82.09313524586142 82.74954764087798 75.49039531027796 C 0.0 **** -0.24
20672 H 82.3416845339651 83.08966858348143 74.48451848450674 H 0.0 **** 0.06
20673 H 81.19715140143634 83.26570515385251 75.83705591160776 H 0.0 **** 0.06
20674 H 82.92208593096979 82.97003116789202 76.16320949302411 H 0.0 **** 0.06
20675 H 81.91232908891271 81.67476438473662 75.47603521029703 H 0.0 **** 0.06
20676 C 121.08590864687385 72.02697213651035 42.22172627582205 C 0.0 **** -0.24
20677 H 120.6327587718417 72.74104019482036 42.90958973917536 H 0.0 **** 0.06
20678 H 121.98751270824266 72.46189851004877 41.78972010989368 H 0.0 **** 0.06
20679 H 120.37945975838241 71.78844212763474 41.42736711959894 H 0.0 **** 0.06
20680 H 121.3437184939315 71.11663788355392 42.76304759018117 H 0.0 **** 0.06
20681 C 86.39699418015167 113.03151209479995 73.01571058838499 C 0.0 **** -0.24
20682 H 86.77965600348864 112.67595784641338 73.97273058285145 H 0.0 **** 0.06
20683 H 86.3079042567484 114.11795686415057 73.04182431523202 H 0.0 **** 0.06
20684 H 85.41851019322957 112.59021553989604 72.82987601281559 H 0.0 **** 0.06
20685 H 87.08449479190071 112.74167361830409 72.22090953747994 H 0.0 **** 0.06
20686 C 12.024168305519709 11.710244850541063 54.629216394036064 C 0.0 **** -0.24
20687 H 11.361474768016421 12.332521520204352 54.02943640027598 H 0.0 **** 0.06
20688 H 13.009324467343731 12.174760093318021 54.68254662507735 H 0.0 **** 0.06
20689 H 12.110830814423366 10.72468428051074 54.17149692198569 H 0.0 **** 0.06
20690 H 11.616044223397012 11.608875387282001 55.63479239328859 H 0.0 **** 0.06
20691 C 22.539779580039855 20.549893106233867 47.54436772507725 C 0.0 **** -0.24
20692 H 22.630194813906584 19.547542511330505 47.125943906943746 H 0.0 **** 0.06
20693 H 22.767123277898776 21.286850467953087 46.774195789059746 H 0.0 **** 0.06
20694 H 23.239729698006734 20.66173523251095 48.373486775065146 H 0.0 **** 0.06
20695 H 21.522446593453516 20.70207361342932 47.90583951493895 H 0.0 **** 0.06
20696 C 37.06191183369792 70.69987404447153 9.074901951802957 C 0.0 **** -0.24
20697 H 37.209938420936886 71.76644546673793 8.901463947535959 H 0.0 **** 0.06
20698 H 38.0225970857674 70.23166313269411 9.291109169824097 H 0.0 **** 0.06
20699 H 36.626114318654466 70.24394777845094 8.18624742885794 H 0.0 **** 0.06
20700 H 36.39052346170224 70.56047406127067 9.921997819478776 H 0.0 **** 0.06
20701 C 62.48785118467461 32.01917358719453 26.061354957854064 C 0.0 **** -0.24
20702 H 61.6296314281019 31.347561540313734 26.097080023597528 H 0.0 **** 0.06
20703 H 62.265258076188275 32.92316459667501 26.62825150298653 H 0.0 **** 0.06
20704 H 62.698396105183804 32.28258940091786 25.02469006951327 H 0.0 **** 0.06
20705 H 63.35601585270879 31.522611178340355 26.494404604516888 H 0.0 **** 0.06
20706 C 32.85200056286355 120.91492632909856 77.34431997914913 C 0.0 **** -0.24
20707 H 32.48050917037392 120.22862360113706 78.10466449745041 H 0.0 **** 0.06
20708 H 33.490432394779305 121.66429795669248 77.81304925181064 H 0.0 **** 0.06
20709 H 32.010733970523106 121.4066167344547 76.856587312248 H 0.0 **** 0.06
20710 H 33.42706663562359 120.35949448278996 76.60299505562278 H 0.0 **** 0.06
20711 C 50.560097668282765 103.54658322636135 18.385481455367504 C 0.0 **** -0.24
20712 H 49.873730541902276 102.70107999764775 18.341748455802836 H 0.0 **** 0.06
20713 H 51.13271030283292 103.5019134449002 19.312584245100837 H 0.0 **** 0.06
20714 H 49.99225068589436 104.47679281930562 18.353841568217838 H 0.0 **** 0.06
20715 H 51.24044650173866 103.506953406121 17.53525676263721 H 0.0 **** 0.06
20716 C 34.969432182153184 40.3811067384367 46.183779789263866 C 0.0 **** -0.24
20717 H 34.52999931451265 41.37548778453893 46.254065979716614 H 0.0 **** 0.06
20718 H 36.0052397362642 40.41683206197666 46.522071925977826 H 0.0 **** 0.06
20719 H 34.93563373538507 40.04153575573632 45.149064231581775 H 0.0 **** 0.06
20720 H 34.40609444753363 39.689191423650016 46.81063541495013 H 0.0 **** 0.06
20721 C 77.36141605291715 9.322380057409902 102.03656453676865 C 0.0 **** -0.24
20722 H 78.3943780484426 9.238480227456733 102.37485654833631 H 0.0 **** 0.06
20723 H 77.31528604234632 9.149140316380453 100.96200971204848 H 0.0 **** 0.06
20724 H 76.98597360571657 10.32124702506312 102.26142214269458 H 0.0 **** 0.06
20725 H 76.75028952702695 8.580331719506106 102.55140900110001 H 0.0 **** 0.06
20726 C 78.6697095918781 118.90617215460468 106.24071450854458 C 0.0 **** -0.24
20727 H 77.6253013486336 119.12849745303248 106.02210296494835 H 0.0 **** 0.06
20728 H 79.09751991755039 118.32962922007817 105.42063116455091 H 0.0 **** 0.06
20729 H 78.7324472557244 118.32827780323716 107.16281929508457 H 0.0 **** 0.06
20730 H 79.22260468242263 119.838212457932 106.35755635764303 H 0.0 **** 0.06
20731 C 104.06284328608407 50.58359830289771 44.852284593719645 C 0.0 **** -0.24
20732 H 104.94728905502575 50.21945777172141 44.3292908087669 H 0.0 **** 0.06
20733 H 103.2231842405296 50.62889705202457 44.15794181074659 H 0.0 **** 0.06
20734 H 104.26032327071005 51.57860888034713 45.25005926507621 H 0.0 **** 0.06
20735 H 103.82154522702265 49.906402013658294 45.67192450915313 H 0.0 **** 0.06
20736 C 83.07527781403533 19.018122622876035 54.94124345229022 C 0.0 **** -0.24
20737 H 82.74363640021593 19.819651329050657 54.28117464057229 H 0.0 **** 0.06
20738 H 82.53696446027249 18.10228324005692 54.698037645778214 H 0.0 **** 0.06
20739 H 82.87469910388077 19.294451236349403 55.97678478602839 H 0.0 **** 0.06
20740 H 84.14550478641965 18.8569060838538 54.808463052358775 H 0.0 **** 0.06
20741 C 66.73398315794711 20.242014507258148 120.06998550458587 C 0.0 **** -0.24
20742 H 67.07256648742401 19.306286476130325 119.62621590528335 H 0.0 **** 0.06
20743 H 65.95926699453426 20.68231164148142 119.44121249211875 H 0.0 **** 0.06
20744 H 67.5748520039669 20.932074919362805 120.14682559025864 H 0.0 **** 0.06
20745 H 66.3309148264577 20.04792957009849 121.06325435503575 H 0.0 **** 0.06
20746 C 6.695512257670217 73.83891522438341 117.97937851828826 C 0.0 **** -0.24
20747 H 7.041258042166788 72.86873034361855 117.62061347376718 H 0.0 **** 0.06
20748 H 5.607070196392883 73.84034306466063 118.02729415770526 H 0.0 **** 0.06
20749 H 7.031824862167241 74.61845087113417 117.29533453594519 H 0.0 **** 0.06
20750 H 7.104941170351964 74.02590572802899 118.97209229615902 H 0.0 **** 0.06
20751 C 103.33500960052311 64.72966604979314 71.08561195473771 C 0.0 **** -0.24
20752 H 103.40652848189384 65.1428767362354 70.07970684732865 H 0.0 **** 0.06
20753 H 104.03717528979976 63.90227564616408 71.18968698954257 H 0.0 **** 0.06
20754 H 102.32106531562061 64.37007912811012 71.26046719219897 H 0.0 **** 0.06
20755 H 103.57618647585119 65.50423536715877 71.81471160911406 H 0.0 **** 0.06
20756 C 35.544508522829865 11.293044729957387 42.40650460095776 C 0.0 **** -0.24
20757 H 35.539376787616675 11.00960534492856 41.35391544992231 H 0.0 **** 0.06
20758 H 36.52777510358953 11.681161976501414 42.67308101770331 H 0.0 **** 0.06
20759 H 35.319801525646334 10.41957345637826 43.01904591333275 H 0.0 **** 0.06
20760 H 34.79045645375542 12.06156453107161 42.57924421605753 H 0.0 **** 0.06
20761 C 115.20966450820337 56.08371129171616 6.491612729365787 C 0.0 **** -0.24
20762 H 114.88729285147343 55.08316848070438 6.780323210474364 H 0.0 **** 0.06
20763 H 116.11947529825684 56.01320470859678 5.894884720464152 H 0.0 **** 0.06
20764 H 115.40594071821538 56.67408414618718 7.385730497130201 H 0.0 **** 0.06
20765 H 114.42578695525978 56.56228599303311 5.904264972822375 H 0.0 **** 0.06
20766 C 117.25677322845203 86.96838508487406 116.82053389405681 C 0.0 **** -0.24
20767 H 116.9051474584353 85.99221095525928 117.15561381950138 H 0.0 **** 0.06
20768 H 117.59156776690745 86.89746441559984 115.78588662202654 H 0.0 **** 0.06
20769 H 118.0861448269973 87.29052055656337 117.45070819888704 H 0.0 **** 0.06
20770 H 116.4440154772669 87.69125072084631 116.89285437919636 H 0.0 **** 0.06
20771 C 95.58501007810537 1.6710718742524833 13.865232005483335 C 0.0 **** -0.24
20772 H 96.21362980394363 0.781816387726753 13.83436160432359 H 0.0 **** 0.06
20773 H 96.19174493242033 2.5349491720992283 14.140086627287076 H 0.0 **** 0.06
20774 H 94.79552155352275 1.5325311775407044 14.603772772351078 H 0.0 **** 0.06
20775 H 95.14065633773623 1.8361508066371108 12.883876407562639 H 0.0 **** 0.06
20776 C 10.636591984860047 2.2059377305305645 13.475386013451214 C 0.0 **** -0.24
20777 H 11.12164751569776 1.329551068984017 13.906273156835027 H 0.0 **** 0.06
20778 H 9.866791623534596 1.8853773020022118 12.773773216251413 H 0.0 **** 0.06
20779 H 11.37786570655436 2.8096165360278462 12.950587607713487 H 0.0 **** 0.06
20780 H 10.182281761715245 2.797661572395441 14.269609031229606 H 0.0 **** 0.06
20781 C 103.22376387522601 58.17638804837884 31.881400785116696 C 0.0 **** -0.24
20782 H 103.10666878605707 58.925616874654395 32.66453618159173 H 0.0 **** 0.06
20783 H 104.05264750906775 58.457710782388716 31.232145404787822 H 0.0 **** 0.06
20784 H 102.3058844163543 58.11627313558154 31.296678953339075 H 0.0 **** 0.06
20785 H 103.42961038523941 57.20670621135278 32.33546302619339 H 0.0 **** 0.06
20786 C 89.46209183851366 12.496358787699961 67.6030366195775 C 0.0 **** -0.24
20787 H 89.77821549758801 11.452493089820422 67.61013955396984 H 0.0 **** 0.06
20788 H 90.33691748920893 13.140925320462543 67.6840992704318 H 0.0 **** 0.06
20789 H 88.7953683665292 12.679381317912402 68.44620548860743 H 0.0 **** 0.06
20790 H 88.93746241752231 12.710264017879865 66.67216465227656 H 0.0 **** 0.06
20791 C 59.897624071266286 20.64555203940898 21.870134979113743 C 0.0 **** -0.24
20792 H 59.3081326271489 21.33980177844999 21.270846821721022 H 0.0 **** 0.06
20793 H 60.58603284087635 21.206397244719568 22.503043505043763 H 0.0 **** 0.06
20794 H 60.46255889567151 19.986460026296637 21.211547516139717 H 0.0 **** 0.06
20795 H 59.231539036169714 20.0504873700039 22.495468437298655 H 0.0 **** 0.06
20796 C 22.495665002154823 18.588006978024993 98.75694539469086 C 0.0 **** -0.24
20797 H 23.09208332383841 19.40707833402311 99.15976231378124 H 0.0 **** 0.06
20798 H 22.301364266741558 18.76716576635323 97.69927554784311 H 0.0 **** 0.06
20799 H 21.550278375817697 18.52886768713722 99.29578374909536 H 0.0 **** 0.06
20800 H 23.039793325198232 17.65095546979262 98.87328087645474 H 0.0 **** 0.06
20801 C 39.81136384429692 33.860784830699714 18.81235681715974 C 0.0 **** -0.24
20802 H 39.59716143131271 34.77582247610361 18.25971263674709 H 0.0 **** 0.06
20803 H 39.620734538381924 34.02484075786171 19.873134490338373 H 0.0 **** 0.06
20804 H 40.85699559205051 33.58552569386865 18.668697927520526 H 0.0 **** 0.06
20805 H 39.17098715719749 33.057660521435594 18.44731957932331 H 0.0 **** 0.06
20806 C 30.414245190062672 64.70025126373343 84.84989560332971 C 0.0 **** -0.24
20807 H 29.57681830703433 64.23082491301511 85.36584834537169 H 0.0 **** 0.06
20808 H 31.209923843628133 64.90914587590296 85.56581649013458 H 0.0 **** 0.06
20809 H 30.082410881475198 65.63183239908523 84.3914092757006 H 0.0 **** 0.06
20810 H 30.788005209341634 64.02787977125976 84.07761316881772 H 0.0 **** 0.06
20811 C 25.914547630450443 89.18886141100595 63.035059260343786 C 0.0 **** -0.24
20812 H 25.2841794283867 88.83262256603459 62.22052508433191 H 0.0 **** 0.06
20813 H 25.302012207017327 89.36163437274442 63.919621838334706 H 0.0 **** 0.06
20814 H 26.397621897224468 90.12088406891294 62.73903690724936 H 0.0 **** 0.06
20815 H 26.67574242422669 88.44167551465 63.25993224845189 H 0.0 **** 0.06
20816 C 109.43549719838472 86.32926326484932 85.95386648835574 C 0.0 **** -0.24
20817 H 108.85453434283048 87.03926758810238 85.36545155241424 H 0.0 **** 0.06
20818 H 109.37904124274007 86.5986490655032 87.0084759594449 H 0.0 **** 0.06
20819 H 110.47570421531708 86.35271690377687 85.62753311287364 H 0.0 **** 0.06
20820 H 109.03355587808653 85.32621297092314 85.81194610352517 H 0.0 **** 0.06
20821 C 42.15281789882505 38.1511060470599 9.919866060498691 C 0.0 **** -0.24
20822 H 42.66806134002448 38.34274141365898 10.8611583736799 H 0.0 **** 0.06
20823 H 41.16222125457304 38.606411373465505 9.94821299736111 H 0.0 **** 0.06
20824 H 42.054892448849984 37.0755704175983 9.77153919219623 H 0.0 **** 0.06
20825 H 42.72632074284397 38.58050425441972 9.0980018183418 H 0.0 **** 0.06
20826 C 119.24513537363893 6.7319122568294745 9.864389925645881 C 0.0 **** -0.24
20827 H 120.25070084497456 6.3154012992286255 9.923659118025046 H 0.0 **** 0.06
20828 H 118.9652552146072 6.85569720368278 8.8179714897645 H 0.0 **** 0.06
20829 H 119.22332707348818 7.700571619320897 10.362977456214086 H 0.0 **** 0.06
20830 H 118.54282037079052 6.05607689588274 10.351706348499011 H 0.0 **** 0.06
20831 C 83.0120716966093 98.86018303918715 111.35886584709847 C 0.0 **** -0.24
20832 H 83.19361716437848 98.61935216122203 110.31180194462243 H 0.0 **** 0.06
20833 H 83.40945050715436 99.85218279001083 111.57746776083061 H 0.0 **** 0.06
20834 H 83.50617456829457 98.12281045293278 111.99201368560334 H 0.0 **** 0.06
20835 H 81.93966929154894 98.84667963780242 111.55490385345054 H 0.0 **** 0.06
20836 C 66.16305722536575 75.7644238560203 58.826034592896235 C 0.0 **** -0.24
20837 H 65.8900300674292 75.22181192448818 57.921297857985905 H 0.0 **** 0.06
20838 H 66.53256347817677 75.06069167593276 59.57280453830634 H 0.0 **** 0.06
20839 H 65.2885891447267 76.28333957460697 59.216253862476606 H 0.0 **** 0.06
20840 H 66.94285287451882 76.4894789323013 58.59345987694229 H 0.0 **** 0.06
20841 C 22.09623289457076 88.14168403262431 9.355790535191911 C 0.0 **** -0.24
20842 H 22.09710172412892 87.64534496729419 10.326146087355937 H 0.0 **** 0.06
20843 H 21.10744897980848 88.5577414162957 9.161641689828482 H 0.0 **** 0.06
20844 H 22.3454175819937 87.41883585768767 8.578530815482626 H 0.0 **** 0.06
20845 H 22.834716858723482 88.94260094947708 9.35704957352614 H 0.0 **** 0.06
20846 C 3.1520462998591654 110.5132170505139 40.595646861886536 C 0.0 **** -0.24
20847 H 2.9600021374484413 110.39690863001576 39.52901312864478 H 0.0 **** 0.06
20848 H 3.250215058070694 111.57239913365224 40.83298274991361 H 0.0 **** 0.06
20849 H 4.073656655331121 109.99480746784951 40.85747296164982 H 0.0 **** 0.06
20850 H 2.3222194329490264 110.08938717146575 41.1620131607645 H 0.0 **** 0.06
20851 C 27.136781730174704 122.0756595564853 58.51433932025108 C 0.0 **** -0.24
20852 H 27.477063893290847 121.4620535769115 57.6797382642018 H 0.0 **** 0.06
20853 H 27.947969015830893 122.72527092875148 58.841790589842304 H 0.0 **** 0.06
20854 H 26.830690544827675 121.43136660341257 59.338059456249226 H 0.0 **** 0.06
20855 H 26.289668991196308 122.6843482958656 58.19557099544605 H 0.0 **** 0.06
20856 C 53.08406575471821 85.7355350233837 65.79602409835547 C 0.0 **** -0.24
20857 H 53.58368816995255 86.5862333283186 65.33265603653422 H 0.0 **** 0.06
20858 H 52.99767887191632 85.90591141856419 66.86934387458092 H 0.0 **** 0.06
20859 H 53.665164570532255 84.83109002400693 65.61651496673494 H 0.0 **** 0.06
20860 H 52.08939227195384 85.62026522406813 65.36539239332501 H 0.0 **** 0.06
20861 C 121.47151423749614 111.2759319772596 71.04291653472214 C 0.0 **** -0.24
20862 H 121.83512775020833 110.6242137503032 71.83705044483168 H 0.0 **** 0.06
20863 H 120.67264662216436 110.77332234109107 70.49772279615982 H 0.0 **** 0.06
20864 H 122.28889016623239 111.50604384532579 70.35898796536992 H 0.0 **** 0.06
20865 H 121.0903643861599 112.20037363483371 71.47797124329148 H 0.0 **** 0.06
20866 C 7.384568323901238 95.97248248483305 59.43877324521554 C 0.0 **** -0.24
20867 H 7.059789734529254 95.45465612491645 60.34073322512887 H 0.0 **** 0.06
20868 H 6.51433700865956 96.35963725816919 58.90769243046714 H 0.0 **** 0.06
20869 H 7.924227211606905 95.27873640628985 58.79522315941489 H 0.0 **** 0.06
20870 H 8.040662188651144 96.79920662551112 59.711802887995475 H 0.0 **** 0.06
20871 C 32.90874120814203 17.803637094095677 1.5827631809470546 C 0.0 **** -0.24
20872 H 32.77873970547216 18.722492804792353 2.155812047670466 H 0.0 **** 0.06
20873 H 32.32516820922871 17.004363246908667 2.040776347576241 H 0.0 **** 0.06
20874 H 33.963418102612536 17.52678636297088 1.5758710046213338 H 0.0 **** 0.06
20875 H 32.56789972513491 17.962589928807006 0.5600412393752379 H 0.0 **** 0.06
20876 C 26.97598894810966 96.36683169998685 60.9889051709525 C 0.0 **** -0.24
20877 H 27.502614791497564 97.09733030131022 61.604076867180005 H 0.0 **** 0.06
20878 H 27.58227110798839 96.12020674311913 60.117804055571845 H 0.0 **** 0.06
20879 H 26.02389311986161 96.78597428007481 60.66392956825538 H 0.0 **** 0.06
20880 H 26.794260464629645 95.46442564122967 61.573386343777166 H 0.0 **** 0.06
20881 C 84.70586012935809 118.11159598698288 55.87631765813083 C 0.0 **** -0.24
20882 H 85.65294993487117 117.98526312510303 55.35047632053113 H 0.0 **** 0.06
20883 H 84.4779622124176 119.17362199152141 55.962308272504316 H 0.0 **** 0.06
20884 H 84.78318158467187 117.67372437450966 56.871592988236785 H 0.0 **** 0.06
20885 H 83.91313080177002 117.61256052914243 55.319793712100676 H 0.0 **** 0.06
20886 C 107.9076040425162 5.2036399107319795 12.192600410837201 C 0.0 **** -0.24
20887 H 108.36928190990511 4.4383380528058325 11.568903587823002 H 0.0 **** 0.06
20888 H 107.77240601453852 4.817385735649552 13.202224233211894 H 0.0 **** 0.06
20889 H 106.93836704122631 5.476443977127474 11.774035292905921 H 0.0 **** 0.06
20890 H 108.55065033142216 6.0837140597151915 12.223196820976966 H 0.0 **** 0.06
20891 C 59.50003257871177 121.45012898349276 29.373445327408852 C 0.0 **** -0.24
20892 H 60.44662451786397 121.14843980007929 29.822059279330276 H 0.0 **** 0.06
20893 H 59.29269282802235 122.49001903066042 29.62745141000414 H 0.0 **** 0.06
20894 H 58.69923995067879 120.81592935781367 29.753383632527218 H 0.0 **** 0.06
20895 H 59.56186047659898 121.34607587339228 28.289503229003806 H 0.0 **** 0.06
20896 C 84.37101341209183 96.99360940507705 57.0901741270402 C 0.0 **** -0.24
20897 H 84.10462596887916 97.2301626556218 56.06052303898119 H 0.0 **** 0.06
20898 H 83.463823152175 96.82125606492212 57.66948431905709 H 0.0 **** 0.06
20899 H 84.92593234311425 97.82691448647296 57.52217736559206 H 0.0 **** 0.06
20900 H 84.99009316059878 96.09658163038526 57.10774035833276 H 0.0 **** 0.06
20901 C 25.426074679732437 57.298156498777445 7.661568833871058 C 0.0 **** -0.24
20902 H 25.319314733308317 56.48918579550596 8.38419033869718 H 0.0 **** 0.06
20903 H 26.378822611665896 57.19546427652395 7.141274817318788 H 0.0 **** 0.06
20904 H 25.39648448916597 58.25569187290583 8.181583795699112 H 0.0 **** 0.06
20905 H 24.610808678074818 57.250628110686876 6.940214911303826 H 0.0 **** 0.06
20906 C 11.313887967674919 73.78149177305832 116.97870311737165 C 0.0 **** -0.24
20907 H 12.377650301001633 73.56500213528057 117.0792122688332 H 0.0 **** 0.06
20908 H 11.163338959023125 74.48967196506746 116.1629169755478 H 0.0 **** 0.06
20909 H 10.940939603034128 74.21157931831655 117.90816927740605 H 0.0 **** 0.06
20910 H 10.77466369608305 72.85888754110229 116.76245608310495 H 0.0 **** 0.06
20911 C 70.19877225821114 9.302981623751485 78.30941577286035 C 0.0 **** -0.24
20912 H 69.64245819683444 9.143263375109349 79.23354342943344 H 0.0 **** 0.06
20913 H 71.19100088433376 9.686969376008495 78.54547903935878 H 0.0 **** 0.06
20914 H 69.6685059172801 10.022687957415467 77.68588347881817 H 0.0 **** 0.06
20915 H 70.29252132790148 8.358021314288038 77.77491767463934 H 0.0 **** 0.06
20916 C 62.74224765845421 47.76911050115359 6.099561414109303 C 0.0 **** -0.24
20917 H 61.83910149778115 48.31138190627996 5.816839020873914 H 0.0 **** 0.06
20918 H 63.36760632019551 47.621835783647555 5.218979881482426 H 0.0 **** 0.06
20919 H 62.46739835663751 46.79990316415382 6.51602526840864 H 0.0 **** 0.06
20920 H 63.291873028507176 48.34257820712179 6.845785144143633 H 0.0 **** 0.06
20921 C 72.68515400612142 84.51130442522248 102.57524864085264 C 0.0 **** -0.24
20922 H 73.57238678781857 83.98433172799014 102.22411917674441 H 0.0 **** 0.06
20923 H 72.16370254233647 84.95218106562155 101.72533787055269 H 0.0 **** 0.06
20924 H 72.98172606447537 85.29873177744741 103.26850785375495 H 0.0 **** 0.06
20925 H 72.02387939062345 83.80928467821553 103.08419691407349 H 0.0 **** 0.06
20926 C 114.75430599679316 52.766647036252266 20.802353343075424 C 0.0 **** -0.24
20927 H 115.48950700339549 53.48224150425901 21.16980420958828 H 0.0 **** 0.06
20928 H 114.49223346998036 52.07306539790159 21.602795571567952 H 0.0 **** 0.06
20929 H 115.1754337582035 52.211401970603276 19.964180652616108 H 0.0 **** 0.06
20930 H 113.86078040456914 53.29800632311472 20.474622576418597 H 0.0 **** 0.06
20931 C 39.50916691110578 3.2837753470849833 96.31840081261373 C 0.0 **** -0.24
20932 H 39.06505493813818 2.360964721903102 96.69191285671525 H 0.0 **** 0.06
20933 H 38.73676755411601 3.891673375056186 95.84501041456622 H 0.0 **** 0.06
20934 H 40.28302102824227 3.045014288693068 95.58845004445209 H 0.0 **** 0.06
20935 H 39.94965732135496 3.837012883934065 97.14789075134934 H 0.0 **** 0.06
20936 C 25.59446868915525 20.197063620006325 39.6430594305078 C 0.0 **** -0.24
20937 H 26.63383811954069 20.1421098936959 39.96868417336262 H 0.0 **** 0.06
20938 H 25.03467321194215 19.366870721002375 40.07462396132877 H 0.0 **** 0.06
20939 H 25.551634175605457 20.14015765804427 38.55581613058616 H 0.0 **** 0.06
20940 H 25.160522403801778 21.140215481806997 39.97511110746448 H 0.0 **** 0.06
20941 C 26.63633888263886 65.52020904102795 23.041474806851454 C 0.0 **** -0.24
20942 H 26.94137887388161 66.12413713925133 23.89531584230889 H 0.0 **** 0.06
20943 H 27.521569592888824 65.15667445558299 22.51800138893043 H 0.0 **** 0.06
20944 H 26.035759930212777 66.12684145246473 22.363656859141088 H 0.0 **** 0.06
20945 H 26.046190281113887 64.67186131569764 23.389135467642234 H 0.0 **** 0.06
20946 C 51.580380010342985 103.68234771874029 50.96275471301172 C 0.0 **** -0.24
20947 H 52.506703334394345 104.23615288412012 51.11761627596536 H 0.0 **** 0.06
20948 H 50.788216016148006 104.37330121105498 50.67612681683474 H 0.0 **** 0.06
20949 H 51.30313409923437 103.17322174857955 51.885494409869466 H 0.0 **** 0.06
20950 H 51.72715870876707 102.94655786569598 50.17119453674272 H 0.0 **** 0.06
20951 C 121.46478065201447 122.26707644355001 32.81155026129576 C 0.0 **** -0.24
20952 H 120.97621697664744 121.96060343669366 33.736982599597354 H 0.0 **** 0.06
20953 H 121.62821359356145 123.34533396400931 32.82722206396913 H 0.0 **** 0.06
20954 H 120.83082515023261 122.00841285089275 31.96392260077011 H 0.0 **** 0.06
20955 H 122.42241966394603 121.75488909378743 32.71909074256844 H 0.0 **** 0.06
20956 C 29.27090430062539 116.91167707002828 2.720538754228425 C 0.0 **** -0.24
20957 H 29.060181812415614 116.14605898243039 3.4666587577792356 H 0.0 **** 0.06
20958 H 28.793632682108118 117.84583880679193 3.0143698407562454 H 0.0 **** 0.06
20959 H 28.881829341482693 116.59249541852749 1.7535708702257544 H 0.0 **** 0.06
20960 H 30.34862504012912 117.06022244888118 2.6471122347764613 H 0.0 **** 0.06
20961 C 5.862003964150386 53.20568177096098 72.82791037982383 C 0.0 **** -0.24
20962 H 5.901043513318491 52.38473178096223 72.11150254123552 H 0.0 **** 0.06
20963 H 5.426449707082082 52.85106447278284 73.76257943558602 H 0.0 **** 0.06
20964 H 5.2507884513736975 54.01149633526538 72.42341869044625 H 0.0 **** 0.06
20965 H 6.872089392256594 53.57343132234493 73.01347688322502 H 0.0 **** 0.06
20966 C 92.26600544905605 71.8750435840885 47.81248577105595 C 0.0 **** -0.24
20967 H 92.16661710672432 71.64127688735468 46.75220267080036 H 0.0 **** 0.06
20968 H 91.99137171428686 72.91546889116177 47.98268434034782 H 0.0 **** 0.06
20969 H 93.29772800930567 71.71528079840866 48.12449778516516 H 0.0 **** 0.06
20970 H 91.60760959873235 71.22585550562627 48.39004606630646 H 0.0 **** 0.06
20971 C 73.15450178968842 111.72724406017893 66.9504928666482 C 0.0 **** -0.24
20972 H 73.14228223721045 111.90583682942516 68.02523859467945 H 0.0 **** 0.06
20973 H 72.18354357417886 111.98559368428919 66.52769415150956 H 0.0 **** 0.06
20974 H 73.36519184469901 110.67453522591703 66.75913194721312 H 0.0 **** 0.06
20975 H 73.92699294336907 112.34158571246311 66.48892182012892 H 0.0 **** 0.06
20976 C 84.3687778837205 45.40499417259525 116.27827318076464 C 0.0 **** -0.24
20977 H 84.09245187233634 44.76386208136924 117.114921653146 H 0.0 **** 0.06
20978 H 84.38210089578592 46.44409183674287 116.60726964416752 H 0.0 **** 0.06
20979 H 83.64177327251957 45.287055037361114 115.47514632345613 H 0.0 **** 0.06
20980 H 85.35748896525351 45.12457259043373 115.91722584906576 H 0.0 **** 0.06
20981 C 102.6127738534723 107.80064536422964 50.129337166512244 C 0.0 **** -0.24
20982 H 102.64420232860911 108.89049420200925 50.1228618519969 H 0.0 **** 0.06
20983 H 102.85847986550547 107.42430801142419 49.13608497968801 H 0.0 **** 0.06
20984 H 101.61306641686738 107.46807886457017 50.40816986677498 H 0.0 **** 0.06
20985 H 103.33686317169585 107.42127181374136 50.85134172083201 H 0.0 **** 0.06
20986 C 122.60816979003002 31.73044803106606 23.961332738386346 C 0.0 **** -0.24
20987 H 123.06933000334547 30.778517275196577 24.224910496530725 H 0.0 **** 0.06
20988 H 121.79023784873786 31.5556570055368 23.262968564054603 H 0.0 **** 0.06
20989 H 123.35224772107918 32.377936223676016 23.497123499248545 H 0.0 **** 0.06
20990 H 122.22217270561544 32.20864030827562 24.861812360304214 H 0.0 **** 0.06
20991 C 19.976022685974783 106.25452949213926 22.487295176897618 C 0.0 **** -0.24
20992 H 20.28167790422596 105.28957257738364 22.891845762534082 H 0.0 **** 0.06
20993 H 20.819942698705233 106.71587559264265 21.973153184767902 H 0.0 **** 0.06
20994 H 19.648200309809397 106.90119512243064 23.30113433452452 H 0.0 **** 0.06
20995 H 19.15652175150767 106.11073714333855 21.783668098095255 H 0.0 **** 0.06
20996 C 42.23837678947481 86.46617467917821 74.07618228968067 C 0.0 **** -0.24
20997 H 42.95179409962367 86.96838086387245 73.42337927528777 H 0.0 **** 0.06
20998 H 42.1546476691575 85.41894514455038 73.78631707243952 H 0.0 **** 0.06
20999 H 41.2641963599479 86.94749498020929 73.98659756912397 H 0.0 **** 0.06
21000 H 42.58194826700671 86.53134478116601 75.10842432069646 H 0.0 **** 0.06
21001 C 79.58354973097988 41.76998492308664 17.658068513449685 C 0.0 **** -0.24
21002 H 79.09146887761685 40.79685573510082 17.64051230717361 H 0.0 **** 0.06
21003 H 79.1728224724603 42.39836315777339 16.867569265203826 H 0.0 **** 0.06
21004 H 80.65372119739303 41.638544518049486 17.49907302303207 H 0.0 **** 0.06
21005 H 79.41454339738004 42.24440513621553 18.624714491221457 H 0.0 **** 0.06
21006 C 8.006522973387867 33.1122561502026 49.38048280272455 C 0.0 **** -0.24
21007 H 7.020830956981996 32.68070462893195 49.20731916281048 H 0.0 **** 0.06
21008 H 8.072918224761018 34.0776016104777 48.877371467686785 H 0.0 **** 0.06
21009 H 8.771189682942108 32.44325685778631 48.98460788726663 H 0.0 **** 0.06
21010 H 8.161469445943577 33.24788831528332 50.450241449523396 H 0.0 **** 0.06
21011 C 28.42564355759508 72.70998216870146 117.84175622045902 C 0.0 **** -0.24
21012 H 28.403263704022407 72.88585554067834 116.76674237320407 H 0.0 **** 0.06
21013 H 28.930505867551062 71.76556656216599 118.04554128416919 H 0.0 **** 0.06
21014 H 27.404992610586476 72.66677303813742 118.22345611649979 H 0.0 **** 0.06
21015 H 28.961910641832674 73.52223162008454 118.33235133595912 H 0.0 **** 0.06
21016 C 53.820124700958615 38.21408657017679 62.481981277580275 C 0.0 **** -0.24
21017 H 53.829644965685816 37.979714047027585 61.417379459747735 H 0.0 **** 0.06
21018 H 53.96271436749245 39.28674799519726 62.618234208321155 H 0.0 **** 0.06
21019 H 54.625721359941764 37.67504480697164 62.98038184086002 H 0.0 **** 0.06
21020 H 52.86355725763272 37.9168625221557 62.91114871566697 H 0.0 **** 0.06
21021 C 112.92474916075628 5.586097832693795 61.91806001881787 C 0.0 **** -0.24
21022 H 112.76716858771212 6.6383062479223724 61.68093146991947 H 0.0 **** 0.06
21023 H 113.00930330360447 5.466453671884281 62.998724197664956 H 0.0 **** 0.06
21024 H 113.84021324762708 5.240248665989512 61.44055624425755 H 0.0 **** 0.06
21025 H 112.08033354151863 5.001909045732745 61.55333435505179 H 0.0 **** 0.06
21026 C 82.90075275585147 115.14742087256198 39.29925149095848 C 0.0 **** -0.24
21027 H 83.89694362881096 115.4659019893331 39.604647292881225 H 0.0 **** 0.06
21028 H 82.50269444962223 115.851637909364 38.56827945875483 H 0.0 **** 0.06
21029 H 82.24500413611366 115.11772579980357 40.169970809499404 H 0.0 **** 0.06
21030 H 82.95819147599877 114.15446744358815 38.85312547675315 H 0.0 **** 0.06
21031 C 119.45944827813223 68.5398690533066 110.3917443729585 C 0.0 **** -0.24
21032 H 119.96956977912993 68.51088930966569 111.3542449301836 H 0.0 **** 0.06
21033 H 118.80638413335842 69.41313529657043 110.35405413338856 H 0.0 **** 0.06
21034 H 118.86334679216907 67.63553232615175 110.26902828567319 H 0.0 **** 0.06
21035 H 120.19597398592578 68.60188314775655 109.5915999007556 H 0.0 **** 0.06
21036 C 75.94773562101676 80.87601270667616 116.75776483150668 C 0.0 **** -0.24
21037 H 75.26323987889342 80.09148218947615 117.07971599540122 H 0.0 **** 0.06
21038 H 75.37640248762895 81.74645076070647 116.43410418364809 H 0.0 **** 0.06
21039 H 76.55496966324108 80.51025912031324 115.92890697896104 H 0.0 **** 0.06
21040 H 76.59659668870793 81.1550714728944 117.58718787104851 H 0.0 **** 0.06
21041 C 121.14658322523407 22.34777664939284 54.35454409671135 C 0.0 **** -0.24
21042 H 121.53194379609488 22.310388380198873 55.37379112945686 H 0.0 **** 0.06
21043 H 121.43044795591052 23.294340096201523 53.89416315904188 H 0.0 **** 0.06
21044 H 120.06075781156284 22.26206491508779 54.37267474059789 H 0.0 **** 0.06
21045 H 121.56656441331847 21.523396355060783 53.778400840749214 H 0.0 **** 0.06
21046 C 40.75087852398397 63.39710182230516 29.296431460340102 C 0.0 **** -0.24
21047 H 40.754862272905 63.93861187658496 28.35084588524444 H 0.0 **** 0.06
21048 H 39.80903174446726 62.85843958154163 29.402708395982927 H 0.0 **** 0.06
21049 H 40.860064887188486 64.10432497213606 30.11941502950708 H 0.0 **** 0.06
21050 H 41.57866972571978 62.689158683972096 29.313586377152376 H 0.0 **** 0.06
21051 C 96.47099237134748 113.81338787630136 102.87795280539194 C 0.0 **** -0.24
21052 H 96.58505266496795 113.08736344004521 103.68330113385471 H 0.0 **** 0.06
21053 H 96.05909868193942 114.7390499906329 103.27894697411094 H 0.0 **** 0.06
21054 H 95.79669715020441 113.41275445928585 102.1209072585566 H 0.0 **** 0.06
21055 H 97.44401722425528 114.01295759146888 102.42906006323543 H 0.0 **** 0.06
21056 C 117.77160716421247 82.60003376353293 79.09756043472174 C 0.0 **** -0.24
21057 H 117.53785662412551 83.63085404925187 78.83029206054658 H 0.0 **** 0.06
21058 H 117.7689690903426 82.49763871975944 80.18302275976126 H 0.0 **** 0.06
21059 H 118.75547538366736 82.33793804669685 78.70986309177704 H 0.0 **** 0.06
21060 H 117.02292870186736 81.93441717455366 78.66849724474031 H 0.0 **** 0.06
21061 C 64.51607380585978 45.00204733675042 84.89107286653964 C 0.0 **** -0.24
21062 H 64.87470003511959 45.88033381439192 85.42713739526727 H 0.0 **** 0.06
21063 H 63.7063636683298 45.292202373825205 84.2210044250607 H 0.0 **** 0.06
21064 H 64.15161072785389 44.264278335690165 85.60500467310467 H 0.0 **** 0.06
21065 H 65.33200281684441 44.57295457106477 84.30931227322901 H 0.0 **** 0.06
21066 C 43.64417474621871 63.789397163999354 102.95484722690696 C 0.0 **** -0.24
21067 H 43.54353474915257 63.74065873352524 101.87027896077657 H 0.0 **** 0.06
21068 H 43.33890326301122 64.77615508310058 103.30278148897145 H 0.0 **** 0.06
21069 H 44.683305274779684 63.61207544826431 103.23125427621451 H 0.0 **** 0.06
21070 H 43.011248965382435 63.03045820835706 103.41287850377816 H 0.0 **** 0.06
21071 C 87.01726791875589 102.54186029556746 1.0325617376825846 C 0.0 **** -0.24
21072 H 87.1392796894805 101.48500026597083 0.7947211360574329 H 0.0 **** 0.06
21073 H 86.61724936647448 103.06623874311722 0.16423427666856583 H 0.0 **** 0.06
21074 H 87.98389742434912 102.96785727792386 1.301161985113879 H 0.0 **** 0.06
21075 H 86.32836266615107 102.64801057384375 1.8710286982971809 H 0.0 **** 0.06
21076 C 51.59656739963124 60.45956780832506 107.64135772149078 C 0.0 **** -0.24
21077 H 51.55807924647968 61.21307444417215 108.42828946179262 H 0.0 **** 0.06
21078 H 51.84753247839481 60.93774500762862 106.6936687871881 H 0.0 **** 0.06
21079 H 50.62586830585025 59.97125123855335 107.55745118699889 H 0.0 **** 0.06
21080 H 52.356375866967866 59.71756452122594 107.88681106793933 H 0.0 **** 0.06
21081 C 41.91084247677646 49.157042265363316 101.79749535257 C 0.0 **** -0.24
21082 H 42.386401038053734 50.10625910235598 102.04603232539014 H 0.0 **** 0.06
21083 H 40.85153013243578 49.20404992957111 102.04811600907976 H 0.0 **** 0.06
21084 H 42.383795994981156 48.35469995639846 102.36425892670843 H 0.0 **** 0.06
21085 H 42.02450726299913 48.962790829123946 100.73076255980664 H 0.0 **** 0.06
21086 C 22.423913331208894 12.130636392044806 23.420207940655757 C 0.0 **** -0.24
21087 H 23.17007327977538 12.280396786604854 24.200480507934344 H 0.0 **** 0.06
21088 H 22.364656873230274 13.022980743596435 22.79695248174704 H 0.0 **** 0.06
21089 H 21.452839732109652 11.941809040609826 23.878378706941703 H 0.0 **** 0.06
21090 H 22.707398902149095 11.276328045025565 22.805704651206725 H 0.0 **** 0.06
21091 C 16.528884782943507 120.8056466366829 85.01038945230147 C 0.0 **** -0.24
21092 H 17.086704963146005 121.22129272230552 85.8483572300639 H 0.0 **** 0.06
21093 H 15.996600615000347 121.60499266815822 84.49498028873816 H 0.0 **** 0.06
21094 H 15.811653541159103 120.07127195637902 85.37939406395492 H 0.0 **** 0.06
21095 H 17.21906102772992 120.32248123765068 84.31837781284565 H 0.0 **** 0.06
21096 C 97.82046757638824 84.50702660809051 12.136275163384695 C 0.0 **** -0.24
21097 H 97.99615635416046 83.44031220035325 11.997199809656479 H 0.0 **** 0.06
21098 H 97.5874766296337 84.96462914612587 11.174170006228586 H 0.0 **** 0.06
21099 H 98.71404555687312 84.9712932955888 12.552378411065295 H 0.0 **** 0.06
21100 H 96.98406497363212 84.650909154971 12.819918054181677 H 0.0 **** 0.06
21101 C 17.5273369902438 52.84134035359972 70.00012811136955 C 0.0 **** -0.24
21102 H 18.456208980113246 52.29736786395199 70.16890558486799 H 0.0 **** 0.06
21103 H 17.497562947490312 53.71698470344609 70.64920026019081 H 0.0 **** 0.06
21104 H 16.680689962322425 52.19262930963674 70.22552984081551 H 0.0 **** 0.06
21105 H 17.475633340866597 53.15887895150996 68.95915546698035 H 0.0 **** 0.06
21106 C 120.02157964343137 94.91629204892209 60.49314020041601 C 0.0 **** -0.24
21107 H 119.70345532149359 94.8421507458194 61.53320516502441 H 0.0 **** 0.06
21108 H 119.18747131543961 95.26193526692384 59.88256900340633 H 0.0 **** 0.06
21109 H 120.3480867631466 93.9365474951824 60.14358352066233 H 0.0 **** 0.06
21110 H 120.84703540968316 95.62339974215195 60.41511083481964 H 0.0 **** 0.06
21111 C 67.53107886808775 25.63992785984277 101.37563671579116 C 0.0 **** -0.24
21112 H 67.87273389203875 25.74739214114132 100.34578505425841 H 0.0 **** 0.06
21113 H 66.50785594814721 26.006367072664915 101.45928656523773 H 0.0 **** 0.06
21114 H 68.17919914651253 26.217309764312034 102.03449128072782 H 0.0 **** 0.06
21115 H 67.56557872127362 24.589222044450793 101.66109791897864 H 0.0 **** 0.06
21116 C 99.45872740515253 58.519410155789956 32.60687859625196 C 0.0 **** -0.24
21117 H 98.4361802981498 58.81524061392696 32.36983440157209 H 0.0 **** 0.06
21118 H 100.015539255872 59.388426474115846 32.95994435454017 H 0.0 **** 0.06
21119 H 99.93675985560643 58.119247304990154 31.71311254034711 H 0.0 **** 0.06
21120 H 99.44429359041766 57.7559153788543 33.38476838770532 H 0.0 **** 0.06
21121 C 40.95244258468025 67.44912190625377 22.566376042143304 C 0.0 **** -0.24
21122 H 41.00607344556936 66.84778527514533 23.474059979965375 H 0.0 **** 0.06
21123 H 40.03447015393728 68.03760386456696 22.573288495083148 H 0.0 **** 0.06
21124 H 40.958825932930154 66.79418282114841 21.695116508198396 H 0.0 **** 0.06
21125 H 41.81193852044462 68.11817664808694 22.52325267380877 H 0.0 **** 0.06
21126 C 119.50846729426621 70.03587826476468 19.990669849592052 C 0.0 **** -0.24
21127 H 120.42328141767132 70.34762037054409 20.494403998014604 H 0.0 **** 0.06
21128 H 119.70889431633617 69.15016221326573 19.386929613008363 H 0.0 **** 0.06
21129 H 119.15665714449699 70.8426072953244 19.346553326818025 H 0.0 **** 0.06
21130 H 118.74540388928745 69.80506946490482 20.733351215992684 H 0.0 **** 0.06
21131 C 81.41599440260376 98.15583761587735 102.51517519772727 C 0.0 **** -0.24
21132 H 80.35777988100932 98.22949002340397 102.76774702947048 H 0.0 **** 0.06
21133 H 81.95843435745843 97.7132463352417 103.35119375962267 H 0.0 **** 0.06
21134 H 81.81067377474818 99.1506232162308 102.31107504633002 H 0.0 **** 0.06
21135 H 81.53530238392779 97.52903024629285 101.63205731440195 H 0.0 **** 0.06
21136 C 12.524523038618412 24.12305738944383 27.725347341134295 C 0.0 **** -0.24
21137 H 12.558316900371949 24.565990725270183 28.720758898302847 H 0.0 **** 0.06
21138 H 11.664753806154266 23.45703220955525 27.653852972506 H 0.0 **** 0.06
21139 H 13.439491458988073 23.557922726435578 27.548611058572988 H 0.0 **** 0.06
21140 H 12.435981190133958 24.912944610764413 26.979594274078863 H 0.0 **** 0.06
21141 C 21.115266863068683 70.40588016295987 69.95157656949903 C 0.0 **** -0.24
21142 H 21.639298136509638 70.72836287187158 69.05098546184786 H 0.0 **** 0.06
21143 H 21.401416740453925 71.04535573997879 70.78628869515978 H 0.0 **** 0.06
21144 H 21.382938072232008 69.37333822844533 70.17612369702658 H 0.0 **** 0.06
21145 H 20.03986350575289 70.47648650624768 69.79117568860454 H 0.0 **** 0.06
21146 C 27.25130200058001 99.93223000843969 94.23249763614842 C 0.0 **** -0.24
21147 H 26.73431746275648 100.85836098382754 93.98158624818356 H 0.0 **** 0.06
21148 H 26.80682395271353 99.10709832065604 93.6749152129828 H 0.0 **** 0.06
21149 H 27.156909089766373 99.74205609699791 95.30084584652283 H 0.0 **** 0.06
21150 H 28.305254717277336 100.02209669660004 93.97042942188389 H 0.0 **** 0.06
21151 C 70.63314753890245 82.24568263399894 7.160698108222363 C 0.0 **** -0.24
21152 H 70.707457415497 82.21908660033355 8.248199311020954 H 0.0 **** 0.06
21153 H 70.02435895774678 81.40815945312218 6.817876584457451 H 0.0 **** 0.06
21154 H 71.63046471639308 82.17304836470956 6.727180143471173 H 0.0 **** 0.06
21155 H 70.17031586134786 83.1829469227001 6.850855159852898 H 0.0 **** 0.06
21156 C 23.824870020280002 36.47926618654927 2.632985964288542 C 0.0 **** -0.24
21157 H 24.65990119071097 36.970501771897545 2.131892398915703 H 0.0 **** 0.06
21158 H 24.193015473067874 35.938545426303705 3.505043950000365 H 0.0 **** 0.06
21159 H 23.348075311363687 35.78088087475075 1.9458347119400319 H 0.0 **** 0.06
21160 H 23.09993240165511 37.22911247248828 2.94927556458069 H 0.0 **** 0.06
21161 C 104.12516097473036 38.2807122303458 36.139912505106466 C 0.0 **** -0.24
21162 H 105.0921898510183 38.77074631656376 36.034894525884624 H 0.0 **** 0.06
21163 H 103.50544618773682 38.845514058875864 36.83650823937896 H 0.0 **** 0.06
21164 H 104.26920356902218 37.268841247608236 36.51894414656422 H 0.0 **** 0.06
21165 H 103.63277618555304 38.23774886622451 35.16790913463042 H 0.0 **** 0.06
21166 C 46.249849384943474 72.6172212374924 30.476702152488457 C 0.0 **** -0.24
21167 H 46.51085083437064 72.91781245770781 29.462099629670497 H 0.0 **** 0.06
21168 H 45.241121440617036 72.96146591282707 30.708994581051925 H 0.0 **** 0.06
21169 H 46.955968622623004 73.05988491025875 31.179452208630316 H 0.0 **** 0.06
21170 H 46.29066866772038 71.53088616764416 30.556414344865345 H 0.0 **** 0.06
21171 C 94.54191935281284 102.18277966986193 113.17764510491315 C 0.0 **** -0.24
21172 H 95.19737501980816 101.92199265016609 114.00832079561806 H 0.0 **** 0.06
21173 H 94.32265886631086 103.24983585459665 113.20809242747197 H 0.0 **** 0.06
21174 H 93.61273683206122 101.61809020096985 113.25739975687719 H 0.0 **** 0.06
21175 H 95.03501817377364 101.93950427267896 112.23531401326434 H 0.0 **** 0.06
21176 C 99.28431746244405 72.08390112327243 75.09571843387221 C 0.0 **** -0.24
21177 H 99.33224710753643 72.51940004081615 74.09767055501928 H 0.0 **** 0.06
21178 H 98.41813783454836 72.48021319336581 75.62463682815601 H 0.0 **** 0.06
21179 H 100.19244461760775 72.33612350393739 75.64389824868707 H 0.0 **** 0.06
21180 H 99.19838931259574 71.00064619012781 75.01577356119074 H 0.0 **** 0.06
21181 C 67.01925182756943 84.26452392314332 21.191014332893303 C 0.0 **** -0.24
21182 H 67.02270574531869 83.30964385124855 20.664072852006655 H 0.0 **** 0.06
21183 H 66.66575993927555 84.11479545792292 22.21123735157198 H 0.0 **** 0.06
21184 H 66.35814382377518 84.96070887344729 20.67534503349202 H 0.0 **** 0.06
21185 H 68.03045395189429 84.67063703157032 21.212590385939507 H 0.0 **** 0.06
21186 C 89.4299961419666 100.58994443023207 12.730056118710507 C 0.0 **** -0.24
21187 H 89.98441009752193 101.34025648224707 12.16714576173095 H 0.0 **** 0.06
21188 H 88.50355206149052 101.02751434472705 13.103073691550748 H 0.0 **** 0.06
21189 H 90.03274358061748 100.24648791134146 13.570051478665988 H 0.0 **** 0.06
21190 H 89.19706028834005 99.74655653953252 12.079910064835104 H 0.0 **** 0.06
21191 C 49.92570917640426 60.38771177348863 21.13897548051 C 0.0 **** -0.24
21192 H 50.44054999472124 59.932705539959386 21.984693722853592 H 0.0 **** 0.06
21193 H 49.3628327734056 61.256082931246766 21.4808245661211 H 0.0 **** 0.06
21194 H 49.242417389995595 59.662204502685626 20.6970719985149 H 0.0 **** 0.06
21195 H 50.65763971455602 60.698606204755066 20.39359271853317 H 0.0 **** 0.06
21196 C 97.67671115738011 37.368649211406854 121.83083855501475 C 0.0 **** -0.24
21197 H 98.29720955327753 36.52141442288415 122.12225932190054 H 0.0 **** 0.06
21198 H 96.8953367110727 37.029929472032 121.15018146952629 H 0.0 **** 0.06
21199 H 98.29333261672014 38.117703483132374 121.33343445660334 H 0.0 **** 0.06
21200 H 97.21999329470847 37.80627012825346 122.7193592007979 H 0.0 **** 0.06
21201 C 61.78635331416465 76.68052071249917 45.00508418624716 C 0.0 **** -0.24
21202 H 61.8782499317529 77.40227627423079 44.19310445592632 H 0.0 **** 0.06
21203 H 62.25542538856933 75.74144585239566 44.71089046766485 H 0.0 **** 0.06
21204 H 60.73058019519902 76.50842560099616 45.21905061277067 H 0.0 **** 0.06
21205 H 62.27894618815352 77.07079526456891 45.89545553715084 H 0.0 **** 0.06
21206 C 100.262075265876 111.45232663780776 4.159754404458482 C 0.0 **** -0.24
21207 H 99.94716459082221 112.49081004412281 4.256952927450442 H 0.0 **** 0.06
21208 H 101.03141604215006 111.23461401822291 4.90232242050152 H 0.0 **** 0.06
21209 H 100.66450108356878 111.28686738901038 3.1607870474230566 H 0.0 **** 0.06
21210 H 99.40640939657035 110.79625174997096 4.320955575635395 H 0.0 **** 0.06
21211 C 92.81805069328533 111.74763125240241 22.301149200136976 C 0.0 **** -0.24
21212 H 93.15630076443529 111.87703496527365 23.329719447593504 H 0.0 **** 0.06
21213 H 92.74108454271828 112.72207218320769 21.819435405416897 H 0.0 **** 0.06
21214 H 91.8420414921178 111.26147303202404 22.298619318432003 H 0.0 **** 0.06
21215 H 93.53332730967281 111.12858067014719 21.75962185324758 H 0.0 **** 0.06
21216 C 93.58174337576256 87.73891834788964 83.13794438738776 C 0.0 **** -0.24
21217 H 93.5358149203656 88.15239279978866 84.14534330229276 H 0.0 **** 0.06
21218 H 93.32699096794369 88.51392340840778 82.41489493625198 H 0.0 **** 0.06
21219 H 92.87334720111659 86.91395144787268 83.05217321174982 H 0.0 **** 0.06
21220 H 94.58958234872676 87.37398018607556 82.94169751623804 H 0.0 **** 0.06
21221 C 90.73718918813654 67.96986754433584 32.05524773344641 C 0.0 **** -0.24
21222 H 91.48315949139737 67.61176396995083 31.34641121260384 H 0.0 **** 0.06
21223 H 89.78552300902484 68.10869846295046 31.541438785069204 H 0.0 **** 0.06
21224 H 91.06361943219258 68.91902743835712 32.47859610249665 H 0.0 **** 0.06
21225 H 90.61539788749772 67.23802890316415 32.854819057580585 H 0.0 **** 0.06
21226 C 52.56003671913657 21.95241503470001 43.13597517431532 C 0.0 **** -0.24
21227 H 53.40668060233474 21.28060069736989 43.27589207420752 H 0.0 **** 0.06
21228 H 52.23458712093332 22.33344535835664 44.10486819119811 H 0.0 **** 0.06
21229 H 51.74101588951176 21.41101269258874 42.66435306333207 H 0.0 **** 0.06
21230 H 52.85901063657109 22.78647250301799 42.500571442187095 H 0.0 **** 0.06
21231 C 16.7059167491516 15.643017483361746 75.5107295865717 C 0.0 **** -0.24
21232 H 16.199732292399993 14.693323260801208 75.34078180494862 H 0.0 **** 0.06
21233 H 17.738180342822094 15.45716332277351 75.80745544706417 H 0.0 **** 0.06
21234 H 16.19393253676998 16.191648150207982 76.3009907211555 H 0.0 **** 0.06
21235 H 16.69207600021233 16.231110287087517 74.5929456076266 H 0.0 **** 0.06
21236 C 90.03563622412275 74.92250299556346 71.79597862239137 C 0.0 **** -0.24
21237 H 89.96106357316833 75.83787470684229 72.38348922543713 H 0.0 **** 0.06
21238 H 90.9910818125615 74.9050012482976 71.27097139847359 H 0.0 **** 0.06
21239 H 89.22282683104655 74.8892086122381 71.07033441467439 H 0.0 **** 0.06
21240 H 89.96823857670839 74.05864049263496 72.45710739242855 H 0.0 **** 0.06
21241 C 54.41665046661163 106.79375525442603 113.65952523277043 C 0.0 **** -0.24
21242 H 53.41371983679625 106.76702527834485 114.08648053755894 H 0.0 **** 0.06
21243 H 55.15231359892988 106.65702033338835 114.45249148618899 H 0.0 **** 0.06
21244 H 54.57920694260096 107.75527257376615 113.17402045907359 H 0.0 **** 0.06
21245 H 54.52035610053608 105.99381233238267 112.92575302916462 H 0.0 **** 0.06
21246 C 34.53425575020589 84.37433797676763 114.47253981458101 C 0.0 **** -0.24
21247 H 34.06548760067747 83.99670239684036 115.38176089429555 H 0.0 **** 0.06
21248 H 34.975803476747785 83.5441039145262 113.91979916173659 H 0.0 **** 0.06
21249 H 35.31201230969788 85.0909649598839 114.7358886596479 H 0.0 **** 0.06
21250 H 33.78265002449494 84.86500994551798 113.85343883024917 H 0.0 **** 0.06
21251 C 14.380647900363954 91.34802329980562 117.00300362415787 C 0.0 **** -0.24
21252 H 13.76481932029131 90.63371460719449 116.45540938597226 H 0.0 **** 0.06
21253 H 15.016365958625599 90.81240794056637 117.70909281745125 H 0.0 **** 0.06
21254 H 13.738209243335774 92.04166521112745 117.54506688382779 H 0.0 **** 0.06
21255 H 15.004100895644854 91.902321239776 116.3013289874353 H 0.0 **** 0.06
21256 C 116.46520150221 53.73740781474933 51.506456436673005 C 0.0 **** -0.24
21257 H 115.5383906089798 53.36606299702609 51.94355678462645 H 0.0 **** 0.06
21258 H 117.04817303971788 54.25003387342764 52.27193593819041 H 0.0 **** 0.06
21259 H 116.2330696477652 54.43214641108034 50.69928531952763 H 0.0 **** 0.06
21260 H 117.03990611359603 52.90038437840008 51.11042425953411 H 0.0 **** 0.06
21261 C 48.481814929646646 67.30928999231531 111.3653639061013 C 0.0 **** -0.24
21262 H 47.627868196017744 66.69508097213537 111.07672143031456 H 0.0 **** 0.06
21263 H 48.137141447074896 68.14396932463802 111.97675068829987 H 0.0 **** 0.06
21264 H 48.97259041449462 67.69114545562644 110.47088647025421 H 0.0 **** 0.06
21265 H 49.185433379899905 66.70595653508207 111.93744943174771 H 0.0 **** 0.06
21266 C 15.789453973906944 29.638412448904432 18.67761098795961 C 0.0 **** -0.24
21267 H 15.648760074372603 30.273992599988446 17.802069240639014 H 0.0 **** 0.06
21268 H 15.075609077352482 29.923224038732087 19.450440168953094 H 0.0 **** 0.06
21269 H 16.80351741365942 29.760899941905308 19.056386925409015 H 0.0 **** 0.06
21270 H 15.627873647090013 28.59750340092637 18.39933554591414 H 0.0 **** 0.06
21271 C 29.68309752130213 56.938003919429974 78.02857363886679 C 0.0 **** -0.24
21272 H 29.099167917689584 57.38750613250426 78.83165900190986 H 0.0 **** 0.06
21273 H 29.852303754430665 57.677318795237284 77.24548110690728 H 0.0 **** 0.06
21274 H 29.138276731389823 56.08869848174362 77.61511654940244 H 0.0 **** 0.06
21275 H 30.641239003260537 56.59851475157589 78.42221705925232 H 0.0 **** 0.06
21276 C 86.57804957568354 114.22097510575543 51.68314127955864 C 0.0 **** -0.24
21277 H 87.36922335654273 114.00289238196899 52.40032402481195 H 0.0 **** 0.06
21278 H 85.6159507955623 114.23430338739598 52.197714464031634 H 0.0 **** 0.06
21279 H 86.56549880075352 113.45269127654615 50.910638520020015 H 0.0 **** 0.06
21280 H 86.75899124116859 115.19377539592392 51.22663081556945 H 0.0 **** 0.06
21281 C 94.58659796096151 51.967292665751316 2.542301160934798 C 0.0 **** -0.24
21282 H 94.91627757346464 51.69360225683789 3.543944797430015 H 0.0 **** 0.06
21283 H 93.49754108209959 52.012676687480905 2.5188796975068755 H 0.0 **** 0.06
21284 H 94.93423291213713 51.21978500689772 1.829104568847555 H 0.0 **** 0.06
21285 H 94.99649680709405 52.94201679605905 2.2779189957406203 H 0.0 **** 0.06
21286 C 70.88654098544345 86.46543848076729 109.06570457477179 C 0.0 **** -0.24
21287 H 71.30355720210838 87.43459272180928 109.33679603638132 H 0.0 **** 0.06
21288 H 70.14215880328317 86.1699894031629 109.80528564113635 H 0.0 **** 0.06
21289 H 71.68358434510247 85.72261422152485 109.03489667049726 H 0.0 **** 0.06
21290 H 70.41642258818504 86.53352379100176 108.08452200924773 H 0.0 **** 0.06
21291 C 13.024355739305804 40.08965056587937 54.27858686627423 C 0.0 **** -0.24
21292 H 12.134367215656653 39.56055617796659 54.61910805281946 H 0.0 **** 0.06
21293 H 13.652025252034434 39.41100189657101 53.7007502858413 H 0.0 **** 0.06
21294 H 13.581798958875368 40.45465779392697 55.141679534568034 H 0.0 **** 0.06
21295 H 12.729396371376765 40.932860001133974 53.65413195193339 H 0.0 **** 0.06
21296 C 14.905698009347486 52.39210785008194 86.62708456818268 C 0.0 **** -0.24
21297 H 15.643448110763266 51.91834587290512 87.27603264295124 H 0.0 **** 0.06
21298 H 13.916598265160935 51.98854549774168 86.84744414716113 H 0.0 **** 0.06
21299 H 15.156766928014786 52.19182060429276 85.58598491532109 H 0.0 **** 0.06
21300 H 14.906489860051888 53.46799617440399 86.80215832519781 H 0.0 **** 0.06
21301 C 32.30195411306967 92.69400868981387 75.64137117740717 C 0.0 **** -0.24
21302 H 32.87248963096475 92.86984539654028 74.72921174800803 H 0.0 **** 0.06
21303 H 32.948596862670556 92.83597915708177 76.50787029843843 H 0.0 **** 0.06
21304 H 31.917247260216357 91.67403185623996 75.63820259465462 H 0.0 **** 0.06
21305 H 31.469482698426752 93.39617834939355 75.69020006852759 H 0.0 **** 0.06
21306 C 42.274214291926214 42.665725108199695 9.945279339301123 C 0.0 **** -0.24
21307 H 41.22853682060766 42.36207730582416 9.898548708165833 H 0.0 **** 0.06
21308 H 42.9007127542099 41.87107086847621 9.538279916858826 H 0.0 **** 0.06
21309 H 42.5516652048989 42.85269941434706 10.98266100901995 H 0.0 **** 0.06
21310 H 42.41415010250836 43.575384798284176 9.361703020684843 H 0.0 **** 0.06
21311 C 42.85482277763913 45.098496210168065 2.076292690996695 C 0.0 **** -0.24
21312 H 43.89764559056789 44.99388478396861 2.3759661239310645 H 0.0 **** 0.06
21313 H 42.361934677026454 44.1274811004738 2.1353026249710894 H 0.0 **** 0.06
21314 H 42.80696851760433 45.46864668435208 1.0524964761045652 H 0.0 **** 0.06
21315 H 42.35475626831328 45.80159583382283 2.7419506376584195 H 0.0 **** 0.06
21316 C 76.58462090123908 3.25373265993319 59.5536959158957 C 0.0 **** -0.24
21317 H 76.87148606545475 2.2227427758110583 59.34492713172327 H 0.0 **** 0.06
21318 H 75.69424035053783 3.2619818304533457 60.18333042977818 H 0.0 **** 0.06
21319 H 76.37231006952715 3.7689311778830987 58.617579119985436 H 0.0 **** 0.06
21320 H 77.39942743615302 3.7603658932986725 60.070717380885725 H 0.0 **** 0.06
21321 C 51.13833410726204 67.85947543100897 10.861029522613507 C 0.0 **** -0.24
21322 H 51.43468418437476 68.26259255289989 11.829436642061154 H 0.0 **** 0.06
21323 H 51.81371469835317 68.23322010964719 10.090676897955547 H 0.0 **** 0.06
21324 H 50.119283730307956 68.17127827696535 10.634721377200293 H 0.0 **** 0.06
21325 H 51.188278381063995 66.77095412960767 10.890729413687097 H 0.0 **** 0.06
21326 C 78.69076197545888 43.90588995921593 82.63462945140276 C 0.0 **** -0.24
21327 H 79.53384214920547 43.80517549023852 83.31848658014312 H 0.0 **** 0.06
21328 H 77.79404372037365 43.49641297272633 83.10111007127529 H 0.0 **** 0.06
21329 H 78.9025897332123 43.361726801452804 81.71408200340028 H 0.0 **** 0.06
21330 H 78.53206653581876 44.959830992201866 82.40559625752459 H 0.0 **** 0.06
21331 C 28.546618495527554 109.80414009532149 10.071840426925228 C 0.0 **** -0.24
21332 H 27.805238412330766 110.18162467979744 10.777087311575741 H 0.0 **** 0.06
21333 H 29.54417691898368 110.0982543376706 10.400605119310185 H 0.0 **** 0.06
21334 H 28.35188825268456 110.22044909261044 9.083566137967246 H 0.0 **** 0.06
21335 H 28.48441029928344 108.71717156857113 10.027696937104775 H 0.0 **** 0.06
21336 C 70.5952006235024 62.112261579638954 85.97630507499261 C 0.0 **** -0.24
21337 H 70.8930896286574 61.064651595207835 85.99070984073475 H 0.0 **** 0.06
21338 H 71.38766045635782 62.720956005372386 86.41222211072517 H 0.0 **** 0.06
21339 H 69.67978043576156 62.23815891515133 86.55415959894779 H 0.0 **** 0.06
21340 H 70.42028640321345 62.42637277471678 84.94678510853686 H 0.0 **** 0.06
21341 C 91.52301255969877 70.02377558114136 42.19366542433562 C 0.0 **** -0.24
21342 H 90.58465000390851 70.2405971275416 41.68173540583746 H 0.0 **** 0.06
21343 H 92.35830919847984 70.29218453192306 41.5466389129291 H 0.0 **** 0.06
21344 H 91.57091493124551 68.96104445227269 42.428024031866244 H 0.0 **** 0.06
21345 H 91.57585619963066 70.60229090970478 43.1155084950164 H 0.0 **** 0.06
21346 C 109.71767363349338 26.690425241328853 65.90013646674984 C 0.0 **** -0.24
21347 H 110.35323788011323 27.54697675458499 65.67782438019958 H 0.0 **** 0.06
21348 H 110.06073875049609 25.826230864781223 65.33120629529787 H 0.0 **** 0.06
21349 H 108.68843292922224 26.921468166206637 65.62493129185546 H 0.0 **** 0.06
21350 H 109.76817680284927 26.467873343635233 66.96606527391893 H 0.0 **** 0.06
21351 C 25.05901997402117 86.36738615376643 24.632008273210147 C 0.0 **** -0.24
21352 H 25.65354436095987 87.1867023520143 24.227814198254748 H 0.0 **** 0.06
21353 H 24.406417481460153 85.97260215840393 23.852227017026678 H 0.0 **** 0.06
21354 H 24.45412619000666 86.73282594135489 25.461801859070476 H 0.0 **** 0.06
21355 H 25.722184931189986 85.57813173259589 24.984986718631205 H 0.0 **** 0.06
21356 C 55.7973702217341 66.14926290217392 61.732108345881024 C 0.0 **** -0.24
21357 H 56.52199398180525 65.79217080169633 62.463836275275774 H 0.0 **** 0.06
21358 H 54.89629036753408 66.48267940450944 62.24657860169557 H 0.0 **** 0.06
21359 H 55.545407543092495 65.34101175204921 61.04487471130893 H 0.0 **** 0.06
21360 H 56.225788994504626 66.98118965044083 61.17314379524384 H 0.0 **** 0.06
21361 C 6.214124244374691 70.46614260591525 3.090409266647285 C 0.0 **** -0.24
21362 H 6.920786309782301 71.29642901077455 3.096010869179139 H 0.0 **** 0.06
21363 H 6.047879196133842 70.12490131029605 4.112810930762265 H 0.0 **** 0.06
21364 H 6.619156873936152 69.64851086166234 2.4954521738002597 H 0.0 **** 0.06
21365 H 5.269230212251198 70.79717451531263 2.659010037459737 H 0.0 **** 0.06
21366 C 41.814196632572376 50.14280970207875 40.64858126108325 C 0.0 **** -0.24
21367 H 42.198873113052315 50.36196967987763 41.644425132828445 H 0.0 **** 0.06
21368 H 42.62351354326162 50.21905291036799 39.92216453367985 H 0.0 **** 0.06
21369 H 41.03125417854349 50.85836202293689 40.39604778404194 H 0.0 **** 0.06
21370 H 41.40355829765346 49.13380463391951 40.63184812600815 H 0.0 **** 0.06
21371 C 74.82946634217433 22.20759137783756 8.823281916470421 C 0.0 **** -0.24
21372 H 75.52060009619282 22.245003787479 7.981295236362968 H 0.0 **** 0.06
21373 H 74.7977919316433 23.18150740211921 9.311114269578042 H 0.0 **** 0.06
21374 H 75.165505511958 21.45440293600126 9.536545559395762 H 0.0 **** 0.06
21375 H 73.83297890548022 21.94847440610763 8.46391249947817 H 0.0 **** 0.06
21376 C 0.15787059315879048 83.25564739665879 26.282241907115754 C 0.0 **** -0.24
21377 H 1.0183339628553227 82.92335317682407 26.863478090257644 H 0.0 **** 0.06
21378 H 0.04856515432682329 82.62178889853786 25.402067564829792 H 0.0 **** 0.06
21379 H 0.30813824896716824 84.28859271711241 25.970755726111285 H 0.0 **** 0.06
21380 H -0.741348165254152 83.18741958850421 26.894105203384925 H 0.0 **** 0.06
21381 C 92.85171157280723 16.986096831881877 27.01134290053892 C 0.0 **** -0.24
21382 H 92.03953436426849 17.712631967701974 27.015698835169815 H 0.0 **** 0.06
21383 H 93.78082740270767 17.479283937623094 27.299215185565117 H 0.0 **** 0.06
21384 H 92.9577033066603 16.564928566507625 26.012601661618987 H 0.0 **** 0.06
21385 H 92.62837505595058 16.188406432767408 27.721473936749817 H 0.0 **** 0.06
21386 C 87.67221033411892 27.51808911107372 101.03561983387388 C 0.0 **** -0.24
21387 H 87.77073561710384 28.161737548116832 101.90897686943407 H 0.0 **** 0.06
21388 H 87.6611837717042 26.47495179372868 101.35212275566076 H 0.0 **** 0.06
21389 H 88.51549427459756 27.685164322452124 100.36526230513795 H 0.0 **** 0.06
21390 H 86.74277153360126 27.750771963130262 100.51576856341009 H 0.0 **** 0.06
21391 C 39.176543442666 69.94364764674299 43.846788573777985 C 0.0 **** -0.24
21392 H 38.881327630689555 69.01897043005101 43.35081498357539 H 0.0 **** 0.06
21393 H 40.25549650877852 69.94381455623528 44.00160259978804 H 0.0 **** 0.06
21394 H 38.670963198950176 70.01537407337122 44.810443666390086 H 0.0 **** 0.06
21395 H 38.897933791306656 70.79366847121162 43.225370606548154 H 0.0 **** 0.06
21396 C 42.913209191410246 1.3047079695259072 63.96482422022703 C 0.0 **** -0.24
21397 H 43.498630476635476 2.074175513796206 64.46828102612773 H 0.0 **** 0.06
21398 H 43.379726983827325 1.0607014267407067 63.009947194771115 H 0.0 **** 0.06
21399 H 41.901322556581064 1.6706908707282082 63.79298405150476 H 0.0 **** 0.06
21400 H 42.87463611434225 0.4112259125344053 64.58937218348248 H 0.0 **** 0.06
21401 C 98.24625833610719 94.05859903771977 21.65489393390186 C 0.0 **** -0.24
21402 H 98.36380284675536 95.14142119745588 21.61691277232103 H 0.0 **** 0.06
21403 H 98.1596032667345 93.73898550993374 22.694135151795933 H 0.0 **** 0.06
21404 H 99.11321752372709 93.58241984236838 21.198509020359893 H 0.0 **** 0.06
21405 H 97.34615625787828 93.77312472454037 21.110728722502017 H 0.0 **** 0.06
21406 C 55.100357568594376 9.606775717594246 112.18270746440005 C 0.0 **** -0.24
21407 H 54.40946312055212 9.595138499811583 111.33935664781853 H 0.0 **** 0.06
21408 H 54.53615788067455 9.56282441977956 113.11427341632334 H 0.0 **** 0.06
21409 H 55.68947044908319 10.523905621373387 112.15715509689404 H 0.0 **** 0.06
21410 H 55.76505645026245 8.745773748422664 112.11829403301363 H 0.0 **** 0.06
21411 C 46.852929845194524 38.467879637096246 56.33068857872934 C 0.0 **** -0.24
21412 H 47.637777509757996 39.22214939081664 56.276573918929046 H 0.0 **** 0.06
21413 H 46.301138608267934 38.58485572845592 57.26415964588318 H 0.0 **** 0.06
21414 H 47.301779943133624 37.47406484891559 56.29571700460167 H 0.0 **** 0.06
21415 H 46.173180778725225 38.589229603885485 55.48766753150443 H 0.0 **** 0.06
21416 C 112.86134738830631 58.932919604678034 119.88338282039783 C 0.0 **** -0.24
21417 H 112.69593181723181 58.603485099979366 120.90917555149838 H 0.0 **** 0.06
21418 H 113.49464761493988 58.21068730422047 119.36791461324025 H 0.0 **** 0.06
21419 H 113.35152095087778 59.90686599810459 119.88925423196986 H 0.0 **** 0.06
21420 H 111.90395039414739 59.00987105698496 119.36817258036888 H 0.0 **** 0.06
21421 C 42.36510879602582 3.2719129946954695 27.8302714218582 C 0.0 **** -0.24
21422 H 41.48672172803694 2.6545702015963286 28.019099853256762 H 0.0 **** 0.06
21423 H 42.1580502294328 4.298919704119072 28.13108215630504 H 0.0 **** 0.06
21424 H 42.60504737486596 3.2456937447320513 26.76761196319935 H 0.0 **** 0.06
21425 H 43.20936323311497 2.887855572355164 28.403527485633198 H 0.0 **** 0.06
21426 C 67.54987620405257 33.18422990226759 23.70495850434503 C 0.0 **** -0.24
21427 H 68.41644038356367 33.48753809357123 23.118012377470052 H 0.0 **** 0.06
21428 H 66.99071538094364 34.06958455217119 24.01040660481584 H 0.0 **** 0.06
21429 H 67.88243483264068 32.6410571765291 24.58986884491327 H 0.0 **** 0.06
21430 H 66.91027662211792 32.540061887842626 23.101893787907784 H 0.0 **** 0.06
21431 C 71.0486663759595 78.59244368381178 58.92957452078881 C 0.0 **** -0.24
21432 H 70.8153166445826 77.66824188027982 58.398947369952076 H 0.0 **** 0.06
21433 H 71.34289043424093 78.35821460718935 59.95258628305161 H 0.0 **** 0.06
21434 H 70.16824851925762 79.23507817287793 58.942437260556126 H 0.0 **** 0.06
21435 H 71.86614802062365 79.10514495169443 58.42391531851026 H 0.0 **** 0.06
21436 C 79.32548031841378 48.798415640396115 90.55027737749086 C 0.0 **** -0.24
21437 H 79.22853881720556 49.10569724285148 91.59167667845165 H 0.0 **** 0.06
21438 H 79.12713609097082 49.65103009435117 89.89970503772363 H 0.0 **** 0.06
21439 H 78.6109239705153 48.00406678539167 90.33788582211571 H 0.0 **** 0.06
21440 H 80.33751801258401 48.434488914526696 90.37258612730051 H 0.0 **** 0.06
21441 C 21.34548160641151 46.957710272754355 46.94645273077478 C 0.0 **** -0.24
21442 H 21.087784307971447 47.88906292460584 46.44195051763424 H 0.0 **** 0.06
21443 H 20.466761513566723 46.313822598866736 46.99259201603826 H 0.0 **** 0.06
21444 H 21.689148130618833 47.1757105083757 47.95781041590649 H 0.0 **** 0.06
21445 H 22.138343117175395 46.453090368610816 46.3952672365113 H 0.0 **** 0.06
21446 C 49.95366628059418 5.65709138027114 5.1059737229400035 C 0.0 **** -0.24
21447 H 50.44333534391609 4.828423799650192 5.618905940480765 H 0.0 **** 0.06
21448 H 48.9630292572121 5.812944637952437 5.5336420571977385 H 0.0 **** 0.06
21449 H 49.85973533654072 5.423243400182038 4.045494005858448 H 0.0 **** 0.06
21450 H 50.54885992942366 6.561344949746232 5.227616869283782 H 0.0 **** 0.06
21451 C 97.11235085422877 67.07536143805774 94.53615194425103 C 0.0 **** -0.24
21452 H 98.07154100133616 67.40187431901504 94.13543673269555 H 0.0 **** 0.06
21453 H 96.43138873796053 66.854200234557 93.71355999626434 H 0.0 **** 0.06
21454 H 96.68936923460453 67.86702444487938 95.15419024006025 H 0.0 **** 0.06
21455 H 97.25648144981156 66.17999012984524 95.14003824771791 H 0.0 **** 0.06
21456 C 91.99067203720207 99.45469264198013 47.43384715671698 C 0.0 **** -0.24
21457 H 92.20870661894114 99.54248484632146 48.49795549221716 H 0.0 **** 0.06
21458 H 92.6601001000264 98.72028821605036 46.98566488259013 H 0.0 **** 0.06
21459 H 92.13689278948266 100.42227848142568 46.953341916895425 H 0.0 **** 0.06
21460 H 90.95798623664265 99.13566584108946 47.30047943192761 H 0.0 **** 0.06
21461 C 44.328189240197716 47.35686684487666 73.86513455299709 C 0.0 **** -0.24
21462 H 43.913009198023204 48.20725299303652 74.40567968472732 H 0.0 **** 0.06
21463 H 43.520597784991935 46.79786704439448 73.39192485103621 H 0.0 **** 0.06
21464 H 44.86001406740155 46.70771838210004 74.56118899778795 H 0.0 **** 0.06
21465 H 45.01913591037406 47.714628959975784 73.10174467843669 H 0.0 **** 0.06
21466 C 48.78933131061518 21.256552718032253 113.16914573818467 C 0.0 **** -0.24
21467 H 49.546408407636676 21.868969089257405 112.6800797429156 H 0.0 **** 0.06
21468 H 48.52126606745796 20.423075785593653 112.51876935699792 H 0.0 **** 0.06
21469 H 47.90453588232921 21.863235145468593 113.36622111461551 H 0.0 **** 0.06
21470 H 49.183119897108014 20.872010343896306 114.10954926654915 H 0.0 **** 0.06
21471 C 77.41656118505108 34.47066132830149 13.188123602214773 C 0.0 **** -0.24
21472 H 78.28083058743147 35.12580654230875 13.295059332919152 H 0.0 **** 0.06
21473 H 76.68196563787038 34.71002747239797 13.95723827531367 H 0.0 **** 0.06
21474 H 77.73158449663336 33.432579407680066 13.296462863616398 H 0.0 **** 0.06
21475 H 76.97128271371986 34.61448537138621 12.202960704648035 H 0.0 **** 0.06
21476 C 23.51406805121394 3.9686990907477764 76.77536910995207 C 0.0 **** -0.24
21477 H 22.612314842781302 4.2719502903098885 77.30715476206757 H 0.0 **** 0.06
21478 H 23.98147283160995 3.1353088258802586 77.29968252400812 H 0.0 **** 0.06
21479 H 24.20961914561292 4.807757251249257 76.73309274900043 H 0.0 **** 0.06
21480 H 23.25317691826126 3.661920885852396 75.76211192570261 H 0.0 **** 0.06
21481 C 94.19082644115323 79.48576532713676 6.079898218576215 C 0.0 **** -0.24
21482 H 93.98273696265198 78.93559967589437 5.161727915565315 H 0.0 **** 0.06
21483 H 93.26155660678566 79.64432210110942 6.626389216463139 H 0.0 **** 0.06
21484 H 94.63746247683366 80.44860945060285 5.832795917156798 H 0.0 **** 0.06
21485 H 94.88246704268218 78.91180209857114 6.697369411111609 H 0.0 **** 0.06
21486 C 116.87613120843477 73.20122627134009 105.62387470809264 C 0.0 **** -0.24
21487 H 116.48131168118397 72.98271208893954 106.61628603655541 H 0.0 **** 0.06
21488 H 116.78522359866838 74.26815470371457 105.42326417543308 H 0.0 **** 0.06
21489 H 116.31072378102328 72.6414212133169 104.87716391492168 H 0.0 **** 0.06
21490 H 117.92511709530737 72.9096831995279 105.57790361920249 H 0.0 **** 0.06
21491 C 85.83466583668476 86.78334655341217 120.61786623203214 C 0.0 **** -0.24
21492 H 86.00991672035894 86.40559040283424 119.61022612579372 H 0.0 **** 0.06
21493 H 84.77269588117588 86.9957303226565 120.74701017767308 H 0.0 **** 0.06
21494 H 86.40821742455066 87.69698214040696 120.76828105817368 H 0.0 **** 0.06
21495 H 86.14679400774224 86.0341345862845 121.34580688359286 H 0.0 **** 0.06
21496 C 80.30562462238504 14.78972382310716 32.21419869435965 C 0.0 **** -0.24
21497 H 80.82941995623764 14.911869067620096 33.16247193499268 H 0.0 **** 0.06
21498 H 80.58746124775348 13.836418401456076 31.764955857199652 H 0.0 **** 0.06
21499 H 80.57770029852207 15.603268525498613 31.541432022590442 H 0.0 **** 0.06
21500 H 79.23015993071664 14.805091984048435 32.38932040562355 H 0.0 **** 0.06
21501 C 112.1184848533378 121.54568898443536 60.22129091575735 C 0.0 **** -0.24
21502 H 112.42333903427219 122.09372667103969 61.11169623933938 H 0.0 **** 0.06
21503 H 111.18067156730149 121.95447723563917 59.84562814906937 H 0.0 **** 0.06
21504 H 111.98081654325846 120.49310545615731 60.47133002064808 H 0.0 **** 0.06
21505 H 112.8885122785999 121.63933832965701 59.456066995696375 H 0.0 **** 0.06
21506 C 44.74605976179225 2.8031024466189223 121.11720134584726 C 0.0 **** -0.24
21507 H 44.30232861250603 2.733383268051597 120.12357511570805 H 0.0 **** 0.06
21508 H 44.311921722554914 3.648146410806717 121.6505295093824 H 0.0 **** 0.06
21509 H 45.82288682945068 2.945434628950636 121.0238302083084 H 0.0 **** 0.06
21510 H 44.547605869916225 1.8833828538885058 121.66875109797809 H 0.0 **** 0.06
21511 C 2.0160461228236812 28.016312966903797 80.04504082985926 C 0.0 **** -0.24
21512 H 2.1695760691650214 28.54758129231186 79.10648098961022 H 0.0 **** 0.06
21513 H 2.530730901762194 27.055528046500058 80.00627070492538 H 0.0 **** 0.06
21514 H 0.9500063671547885 27.85125846178107 80.19857366571583 H 0.0 **** 0.06
21515 H 2.4150679423991406 28.609279646396374 80.86784105978595 H 0.0 **** 0.06
21516 C 87.94523562229827 72.39554430952842 85.2114107777156 C 0.0 **** -0.24
21517 H 86.94523228393425 71.97207992411194 85.1113386251192 H 0.0 **** 0.06
21518 H 87.86723631513257 73.4608827191243 85.43138892114754 H 0.0 **** 0.06
21519 H 88.49403081593277 72.2552384925338 84.28045792675914 H 0.0 **** 0.06
21520 H 88.47214793264956 71.89343060871931 86.0231172558887 H 0.0 **** 0.06
21521 C 110.30713736206815 17.01191511834304 63.218553927203345 C 0.0 **** -0.24
21522 H 110.20484693483087 17.606554661373252 62.31030800247839 H 0.0 **** 0.06
21523 H 110.0183157906931 17.613838197474195 64.08042506653584 H 0.0 **** 0.06
21524 H 111.34370652183557 16.693197264618732 63.328410365888374 H 0.0 **** 0.06
21525 H 109.66214825829522 16.13589676786438 63.1538700268311 H 0.0 **** 0.06
21526 C 85.7669977113224 57.604083087070705 66.96489724899112 C 0.0 **** -0.24
21527 H 85.9896307262008 56.606189458063454 66.58757119054582 H 0.0 **** 0.06
21528 H 85.92112273415401 58.33510357297925 66.17073435845657 H 0.0 **** 0.06
21529 H 86.42784396822975 57.83142673026737 67.80107437945608 H 0.0 **** 0.06
21530 H 84.72990611305383 57.64306362726714 67.29954888468399 H 0.0 **** 0.06
21531 C 96.18205162557229 5.46317956558363 40.20960896695408 C 0.0 **** -0.24
21532 H 95.40172159067484 6.099553298765898 40.62728426027269 H 0.0 **** 0.06
21533 H 96.0645529965166 4.447776975451802 40.58874984937785 H 0.0 **** 0.06
21534 H 97.1587873161181 5.850330761435259 40.50101334433421 H 0.0 **** 0.06
21535 H 96.10297064648086 5.4587856612517385 39.12314040197282 H 0.0 **** 0.06
21536 C 2.243432098668819 50.919006645173056 43.79992120086615 C 0.0 **** -0.24
21537 H 1.47764706775925 50.30775604094276 43.322286278347974 H 0.0 **** 0.06
21538 H 1.7673866938072536 51.72329161619024 44.361253200672195 H 0.0 **** 0.06
21539 H 2.8969558039553647 51.343109038421744 43.038307128582346 H 0.0 **** 0.06
21540 H 2.8305708167987973 50.29940655921655 44.478591998120805 H 0.0 **** 0.06
21541 C 14.81411009940183 80.22462587913395 26.56700529839125 C 0.0 **** -0.24
21542 H 14.798054353726798 81.16282334894737 27.12141925526487 H 0.0 **** 0.06
21543 H 14.343102565176082 79.44204307002138 27.163568198556504 H 0.0 **** 0.06
21544 H 15.846403190453145 79.9465175076129 26.35279306915706 H 0.0 **** 0.06
21545 H 14.268922283777613 80.3466706496693 25.63113327613152 H 0.0 **** 0.06
21546 C 8.493935321048575 2.599713277752869 40.64944702920769 C 0.0 **** -0.24
21547 H 7.43039735082608 2.4806761422574937 40.44129251038913 H 0.0 **** 0.06
21548 H 9.034313738981744 1.721676333502046 40.29309674992993 H 0.0 **** 0.06
21549 H 8.643523397024662 2.707126376031283 41.72381845833962 H 0.0 **** 0.06
21550 H 8.866658374678536 3.4882941208237526 40.13924336505903 H 0.0 **** 0.06
21551 C 36.40129793146781 41.94400036908017 101.27111399067215 C 0.0 **** -0.24
21552 H 35.8666236168238 42.74953978868126 100.76752212712677 H 0.0 **** 0.06
21553 H 36.21556396185332 42.00048802134117 102.34416395393802 H 0.0 **** 0.06
21554 H 37.469962650879836 42.04337620136667 101.08163239521778 H 0.0 **** 0.06
21555 H 36.05246030765221 40.98315460773016 100.89230020862834 H 0.0 **** 0.06
21556 C 54.173996625940305 48.46379462493373 3.201800185640778 C 0.0 **** -0.24
21557 H 53.09763795143013 48.33600422039502 3.3210889169398286 H 0.0 **** 0.06
21558 H 54.593462606271686 48.881061808201565 4.118404591313919 H 0.0 **** 0.06
21559 H 54.36936485855907 49.141238738417556 2.3714293208319077 H 0.0 **** 0.06
21560 H 54.633732688164656 47.496225732855684 2.9988042310774574 H 0.0 **** 0.06
21561 C 119.32383075738754 114.27493650070433 57.94024988041905 C 0.0 **** -0.24
21562 H 118.43286004679626 114.85446529267338 57.69699745369257 H 0.0 **** 0.06
21563 H 119.0729139025256 113.51740131144919 58.68241783440778 H 0.0 **** 0.06
21564 H 120.08886907074204 114.9387489155631 58.34250547818271 H 0.0 **** 0.06
21565 H 119.69871697009395 113.79129772143465 57.03840789367545 H 0.0 **** 0.06
21566 C 98.66458047286022 105.93314617115965 111.77412118346035 C 0.0 **** -0.24
21567 H 97.99160518482023 106.00875519663279 110.92040306276718 H 0.0 **** 0.06
21568 H 98.2024797437985 106.40002283813908 112.64395807881868 H 0.0 **** 0.06
21569 H 99.60125668621887 106.44037167773314 111.54383427115638 H 0.0 **** 0.06
21570 H 98.8642161484776 104.88279885777982 111.98802837941199 H 0.0 **** 0.06
21571 C 12.932201632159973 63.05116355735546 53.31654596428814 C 0.0 **** -0.24
21572 H 13.578051518977915 62.63127020331995 54.087532092647734 H 0.0 **** 0.06
21573 H 12.61891875069514 62.260657429635394 52.6342695891347 H 0.0 **** 0.06
21574 H 13.478645231233024 63.81435086730351 52.76134625349397 H 0.0 **** 0.06
21575 H 12.054247669648493 63.49938279955379 53.781068779006944 H 0.0 **** 0.06
21576 C 72.28150830745517 114.69628482959301 95.21417387550969 C 0.0 **** -0.24
21577 H 71.84149948702043 115.19377280019212 94.34951375638195 H 0.0 **** 0.06
21578 H 71.68655776292451 114.91612637074059 96.10022953734861 H 0.0 **** 0.06
21579 H 73.2994077545722 115.05779739102812 95.36013453223325 H 0.0 **** 0.06
21580 H 72.29903787784025 113.61995840181389 95.04408788964065 H 0.0 **** 0.06
21581 C 83.48073768565007 41.58428849792858 22.92181673180778 C 0.0 **** -0.24
21582 H 84.46238998005788 42.05161144792842 22.84641685806261 H 0.0 **** 0.06
21583 H 82.98845063907822 41.61583268659649 21.94864013645909 H 0.0 **** 0.06
21584 H 82.87733808553821 42.12307931058152 23.652384670242526 H 0.0 **** 0.06
21585 H 83.59504966684014 40.547605254443425 23.23810099755977 H 0.0 **** 0.06
21586 C 18.089526583916104 108.41584987440297 27.64547349449603 C 0.0 **** -0.24
21587 H 18.29850830273661 107.61974708204013 28.35978791532696 H 0.0 **** 0.06
21588 H 18.912984648385823 108.48987134550043 26.934160731813847 H 0.0 **** 0.06
21589 H 17.982728712294698 109.36142860100051 28.17719825797701 H 0.0 **** 0.06
21590 H 17.16570438483547 108.19187652541711 27.11231629487432 H 0.0 **** 0.06
21591 C 56.888600651753706 92.32540377598468 91.96574684203406 C 0.0 **** -0.24
21592 H 56.695057771697975 92.52915364426514 93.01920937590194 H 0.0 **** 0.06
21593 H 55.942491587848195 92.16915373744891 91.44655251497193 H 0.0 **** 0.06
21594 H 57.5040018744082 91.42991012073628 91.87716017016984 H 0.0 **** 0.06
21595 H 57.41256636308259 93.172055118467 91.52209430749312 H 0.0 **** 0.06
21596 C 33.66296316854425 117.86574594738498 82.06473753832321 C 0.0 **** -0.24
21597 H 33.2373096502065 117.25307788106016 81.2703012425755 H 0.0 **** 0.06
21598 H 32.89220975124175 118.09147875715115 82.80255463565052 H 0.0 **** 0.06
21599 H 34.04391621000235 118.79529316742908 81.64194105536876 H 0.0 **** 0.06
21600 H 34.47876433710212 117.32406342307307 82.54402832376601 H 0.0 **** 0.06
21601 C 1.273007645393065 106.97195201066233 94.89432611594478 C 0.0 **** -0.24
21602 H 0.3672708230673578 107.18693299951036 94.32709413095014 H 0.0 **** 0.06
21603 H 1.3976821061127396 105.89293602432065 94.98368434209175 H 0.0 **** 0.06
21604 H 1.192533309526226 107.41282191445123 95.88745988624095 H 0.0 **** 0.06
21605 H 2.13407808745211 107.39581946181511 94.37725240039828 H 0.0 **** 0.06
21606 C 50.17027326657623 36.2123955796022 35.31425668876264 C 0.0 **** -0.24
21607 H 50.5456359263425 35.889626370968614 36.28596040212534 H 0.0 **** 0.06
21608 H 50.552402687921784 37.20736320086897 35.08949553117472 H 0.0 **** 0.06
21609 H 49.0803764261874 36.23766210430813 35.338103359222316 H 0.0 **** 0.06
21610 H 50.5010918570471 35.51342573923384 34.546963214471816 H 0.0 **** 0.06
21611 C 101.23849825982163 82.24628621769665 102.6171576175397 C 0.0 **** -0.24
21612 H 101.38806508788659 83.297671823109 102.8650371534888 H 0.0 **** 0.06
21613 H 100.8998163475089 81.70875669382269 103.50272618614622 H 0.0 **** 0.06
21614 H 102.17893238342955 81.81863835204092 102.26946077218895 H 0.0 **** 0.06
21615 H 100.48845426410941 82.16176125653203 101.83067069838444 H 0.0 **** 0.06
21616 C 3.631427716618555 65.95837842675871 38.7786250006034 C 0.0 **** -0.24
21617 H 4.04254200212708 66.87871481622449 38.36546761246002 H 0.0 **** 0.06
21618 H 4.102666422294739 65.74860550625505 39.73967370972977 H 0.0 **** 0.06
21619 H 3.8252436536427066 65.13376455241024 38.09104039226139 H 0.0 **** 0.06
21620 H 2.5558599825716435 66.07041381720705 38.917557657505796 H 0.0 **** 0.06
21621 C 44.84277866937951 52.42625373758975 90.07424665269176 C 0.0 **** -0.24
21622 H 44.03431098592502 51.86041718019176 90.53494721621013 H 0.0 **** 0.06
21623 H 44.52416004617506 53.457742433494445 89.92248237664907 H 0.0 **** 0.06
21624 H 45.09714385524705 51.97946396427838 89.1126893610861 H 0.0 **** 0.06
21625 H 45.7161403930898 52.4073620995846 90.72560714806394 H 0.0 **** 0.06
21626 C 58.40709490797597 41.93440231177787 2.239184031712327 C 0.0 **** -0.24
21627 H 59.44402933631958 41.59899445171486 2.2356248324893926 H 0.0 **** 0.06
21628 H 58.20188590080431 42.47166492942398 3.164860674167201 H 0.0 **** 0.06
21629 H 57.7467487180157 41.06975001011884 2.166256083210399 H 0.0 **** 0.06
21630 H 58.236007237042976 42.59405088845163 1.3889947324052514 H 0.0 **** 0.06
21631 C 38.96518330268276 9.795734255365137 69.42272977414245 C 0.0 **** -0.24
21632 H 38.3183165686159 10.208391383645104 70.1969698245955 H 0.0 **** 0.06
21633 H 38.36693530782827 9.207846733740698 68.72569692119538 H 0.0 **** 0.06
21634 H 39.71977132181473 9.158224197770643 69.88248506402715 H 0.0 **** 0.06
21635 H 39.453398686139394 10.608655925939335 68.88655802311888 H 0.0 **** 0.06
21636 C 55.309475511463575 55.33021187329294 63.18851163359242 C 0.0 **** -0.24
21637 H 55.558299296676466 56.1411510995911 62.504012237855655 H 0.0 **** 0.06
21638 H 55.50080551005715 54.37322845040944 62.70258292065159 H 0.0 **** 0.06
21639 H 54.25496056239791 55.39562220392426 63.45971623577187 H 0.0 **** 0.06
21640 H 55.921253691710604 55.41167909519504 64.08611209883571 H 0.0 **** 0.06
21641 C 76.63197829583476 53.3583677608502 114.69622905773785 C 0.0 **** -0.24
21642 H 76.11516047477707 53.30466751908409 113.73771938764928 H 0.0 **** 0.06
21643 H 77.47363263493165 52.66502987014184 114.69344915980736 H 0.0 **** 0.06
21644 H 75.94181494341507 53.08969312611896 115.4964063226655 H 0.0 **** 0.06
21645 H 76.99697202552045 54.372567723230674 114.85607617883738 H 0.0 **** 0.06
21646 C 20.744929388174683 99.6756251639139 121.64490933931405 C 0.0 **** -0.24
21647 H 20.51644367206195 100.28655687398361 120.77160592567819 H 0.0 **** 0.06
21648 H 20.533617134234063 98.63014932255047 121.42305925907696 H 0.0 **** 0.06
21649 H 20.130105505828855 100.00047524394722 122.48524691280423 H 0.0 **** 0.06
21650 H 21.798770191459973 99.7880450779007 121.90070512481003 H 0.0 **** 0.06
21651 C 77.5062162050074 2.2660748598659666 5.530566818496553 C 0.0 **** -0.24
21652 H 77.31458002839983 1.4490242371756494 6.226601315850033 H 0.0 **** 0.06
21653 H 76.63234938261576 2.4158519308888344 4.8968825843065105 H 0.0 **** 0.06
21654 H 78.36696440458371 2.0182809100398345 4.909100932776312 H 0.0 **** 0.06
21655 H 77.71240399206147 3.1786520863943224 6.0888189724609845 H 0.0 **** 0.06
21656 C 102.25087844920137 51.535002432345664 69.61905394658754 C 0.0 **** -0.24
21657 H 102.11510583250049 52.6149540289056 69.5590082330445 H 0.0 **** 0.06
21658 H 102.9010925133974 51.20501896170154 68.80821501931473 H 0.0 **** 0.06
21659 H 101.28249420285422 51.04191946206734 69.53330854877771 H 0.0 **** 0.06
21660 H 102.70499920828286 51.2788837599619 70.57685912133462 H 0.0 **** 0.06
21661 C 15.91211142572891 10.071251775801425 98.52456437681869 C 0.0 **** -0.24
21662 H 16.7743160331176 10.72612070393376 98.65092907729147 H 0.0 **** 0.06
21663 H 15.660209225863412 9.614586660375995 99.48245083325614 H 0.0 **** 0.06
21664 H 16.15183281022871 9.29119696931652 97.80147287128582 H 0.0 **** 0.06
21665 H 15.064038736956718 10.652311223364265 98.16465651802372 H 0.0 **** 0.06
21666 C 46.2441368321019 58.10453253126342 45.758983089624195 C 0.0 **** -0.24
21667 H 46.1666494257825 58.95281675575399 46.437839195667465 H 0.0 **** 0.06
21668 H 45.86919576527539 57.20782874571977 46.25395756685856 H 0.0 **** 0.06
21669 H 47.28692504399572 57.9567951029405 45.479003626459445 H 0.0 **** 0.06
21670 H 45.65202383663596 58.29930331277311 44.865062709537256 H 0.0 **** 0.06
21671 C 81.91388541109461 101.5646052344517 58.95464043473897 C 0.0 **** -0.24
21672 H 82.84476337512623 101.1556184386786 59.34582463075039 H 0.0 **** 0.06
21673 H 81.13905730655702 100.79815013473151 58.98658035128738 H 0.0 **** 0.06
21674 H 82.06335413369558 101.88850493693337 57.92517787885612 H 0.0 **** 0.06
21675 H 81.60821589627187 102.41643565024728 59.562355198614476 H 0.0 **** 0.06
21676 C 82.0045344291859 120.63576776970102 12.189234205433479 C 0.0 **** -0.24
21677 H 81.90538171474697 120.59698285155156 13.274517881818952 H 0.0 **** 0.06
21678 H 81.41199334134055 119.83836546329049 11.741690126396747 H 0.0 **** 0.06
21679 H 83.05194204037372 120.50775330742074 11.916210916218915 H 0.0 **** 0.06
21680 H 81.65031874822998 121.60046678289628 11.826101739924752 H 0.0 **** 0.06
21681 C 110.45379221056032 58.19381007778961 76.12746430310281 C 0.0 **** -0.24
21682 H 110.95129936685112 59.15630284792505 76.24292588906053 H 0.0 **** 0.06
21683 H 109.57728632628096 58.158144680560014 76.77499235942409 H 0.0 **** 0.06
21684 H 111.14149467760592 57.393935911993594 76.40065603779303 H 0.0 **** 0.06
21685 H 110.14366484969707 58.06690076931659 75.0895590780616 H 0.0 **** 0.06
21686 C 76.96195142204567 104.6883372825107 5.374156672990978 C 0.0 **** -0.24
21687 H 76.65099362250788 104.63841486771341 6.418004443329892 H 0.0 **** 0.06
21688 H 77.89302071126752 105.25038888122342 5.299556925340795 H 0.0 **** 0.06
21689 H 76.1887239496711 105.18714087082373 4.789436729660679 H 0.0 **** 0.06
21690 H 77.11336501105865 103.67973944567018 4.9920057162160845 H 0.0 **** 0.06
21691 C 26.881852665463867 59.73174353424515 25.685201095662137 C 0.0 **** -0.24
21692 H 26.230920289742585 59.40610012062731 26.496703744543254 H 0.0 **** 0.06
21693 H 27.907765252323344 59.43403250794034 25.90110065089599 H 0.0 **** 0.06
21694 H 26.829649997589556 60.816039318410496 25.589934997849817 H 0.0 **** 0.06
21695 H 26.55654766127425 59.26920629593321 24.752808933995674 H 0.0 **** 0.06
21696 C 41.218138840898646 78.03663463474038 19.649531111919075 C 0.0 **** -0.24
21697 H 41.433521399713264 77.49021467512205 18.73204779633231 H 0.0 **** 0.06
21698 H 41.7610942597098 78.98184774578925 19.645441497275357 H 0.0 **** 0.06
21699 H 41.52939759041284 77.44144244272599 20.508356128261738 H 0.0 **** 0.06
21700 H 40.14763555023677 78.23288722096737 19.711883109951515 H 0.0 **** 0.06
21701 C 59.14416391514997 12.48737809741272 80.51354582365701 C 0.0 **** -0.24
21702 H 59.79228993135353 11.856236935584043 79.90658572778062 H 0.0 **** 0.06
21703 H 58.69822769386388 13.259171200718523 79.88588632808757 H 0.0 **** 0.06
21704 H 59.72902413777252 12.955695120327704 81.3043161677561 H 0.0 **** 0.06
21705 H 58.35567795703819 11.878437673989016 80.95642686282622 H 0.0 **** 0.06
21706 C 63.34518378730826 97.60292034782071 29.31280936123565 C 0.0 **** -0.24
21707 H 62.751583342897476 97.2832606517961 30.169600671827084 H 0.0 **** 0.06
21708 H 64.39576761357151 97.37077345632144 29.49183075933415 H 0.0 **** 0.06
21709 H 63.229521235954024 98.67772548378372 29.170428656801903 H 0.0 **** 0.06
21710 H 63.00443861765547 97.0791566358148 28.41966579236282 H 0.0 **** 0.06
21711 C 92.04424950304488 48.27111770770015 6.085686913943107 C 0.0 **** -0.24
21712 H 91.19135060764614 47.6055738100889 6.2166788702785425 H 0.0 **** 0.06
21713 H 92.64733744773525 48.27197083424075 6.994206803178081 H 0.0 **** 0.06
21714 H 91.6882802103813 49.28113246734582 5.884646792896813 H 0.0 **** 0.06
21715 H 92.64926475543382 47.92561247325548 5.247833246368732 H 0.0 **** 0.06
21716 C 83.61082305006727 109.22449341746955 105.62024155705518 C 0.0 **** -0.24
21717 H 83.79896789783407 109.96844135199504 106.3952836181779 H 0.0 **** 0.06
21718 H 84.07558234227864 108.27943378796445 105.9041875353629 H 0.0 **** 0.06
21719 H 84.03349452965912 109.56971776662243 104.67647033356064 H 0.0 **** 0.06
21720 H 82.53587563234993 109.08226054449779 105.50727691474242 H 0.0 **** 0.06
21721 C 40.197452245398296 95.45241949462346 30.775404927622844 C 0.0 **** -0.24
21722 H 39.91795103783994 96.41372069165595 31.20782749217716 H 0.0 **** 0.06
21723 H 40.53889338897858 95.60045765680417 29.750564542154166 H 0.0 **** 0.06
21724 H 39.33346941025559 94.78798741407181 30.779250914087754 H 0.0 **** 0.06
21725 H 40.99951783795589 95.00834061106531 31.36605366478358 H 0.0 **** 0.06
21726 C 42.998067062151904 6.623641056987964 44.365898689390946 C 0.0 **** -0.24
21727 H 43.22970576709733 6.597524728018783 43.300866480329915 H 0.0 **** 0.06
21728 H 43.69196058055002 5.977685847398732 44.904465138667206 H 0.0 **** 0.06
21729 H 41.978347913557116 6.273849778981742 44.52374352753071 H 0.0 **** 0.06
21730 H 43.09267746119653 7.64562648069375 44.73211005269249 H 0.0 **** 0.06
21731 C 68.6737350247044 12.175653338272298 110.86791069116882 C 0.0 **** -0.24
21732 H 69.20266736214359 13.068915071259937 111.19889730691523 H 0.0 **** 0.06
21733 H 69.3829061748078 11.475695663000465 110.42694967501808 H 0.0 **** 0.06
21734 H 67.92473341740879 12.45179887153921 110.12500731589114 H 0.0 **** 0.06
21735 H 68.18266518422217 11.707244990697802 111.72099636824316 H 0.0 **** 0.06
21736 C 119.03251398798974 24.94403038083825 94.93823051071843 C 0.0 **** -0.24
21737 H 119.42000189517755 25.387930915244475 95.85552795199669 H 0.0 **** 0.06
21738 H 118.33221820749243 25.635025704242445 94.46804814214863 H 0.0 **** 0.06
21739 H 118.52024862084191 24.01164256795903 95.17516357695354 H 0.0 **** 0.06
21740 H 119.85817541859221 24.742197183364347 94.25623149148242 H 0.0 **** 0.06
21741 C 61.105094631418325 4.529679245265385 78.86983479771666 C 0.0 **** -0.24
21742 H 61.34673045493753 3.7410374700020164 78.15822512103443 H 0.0 **** 0.06
21743 H 60.0589553651067 4.444193630231291 79.16447355596702 H 0.0 **** 0.06
21744 H 61.274023978740445 5.501536889372279 78.4063839273717 H 0.0 **** 0.06
21745 H 61.74007255373115 4.43163020128981 79.75099347594136 H 0.0 **** 0.06
21746 C 89.65886030855017 33.8912511725008 31.76201632078852 C 0.0 **** -0.24
21747 H 89.95004143402963 33.003672259146924 31.200495758453854 H 0.0 **** 0.06
21748 H 89.98392560638581 33.78920594848876 32.797871768123144 H 0.0 **** 0.06
21749 H 88.57512367852405 34.00353083105833 31.730372622913677 H 0.0 **** 0.06
21750 H 90.12780758700575 34.77029183094194 31.319339094205787 H 0.0 **** 0.06
21751 C 40.34506193630108 9.019162930592632 17.552375296687387 C 0.0 **** -0.24
21752 H 40.33128743097484 8.093549979229081 18.128495161588262 H 0.0 **** 0.06
21753 H 41.06712004266808 9.708934164689843 17.98909013722175 H 0.0 **** 0.06
21754 H 39.35316174553532 9.470727751861592 17.5702177310734 H 0.0 **** 0.06
21755 H 40.62632577808648 8.801197776913902 16.52236027669619 H 0.0 **** 0.06
21756 C 43.348984738824015 56.24224691029777 1.2577462233494714 C 0.0 **** -0.24
21757 H 42.77394066875729 56.18866864371689 0.3320535384928007 H 0.0 **** 0.06
21758 H 44.40718132118809 56.10340047784117 1.0356363260991372 H 0.0 **** 0.06
21759 H 43.01434760910399 55.4593884108425 1.9378253723300816 H 0.0 **** 0.06
21760 H 43.19958732071882 57.216802384044236 1.721906903425861 H 0.0 **** 0.06
21761 C 15.855575845184944 59.61969294802517 94.56660806362669 C 0.0 **** -0.24
21762 H 16.14430194144643 59.444458711513114 93.53055676290455 H 0.0 **** 0.06
21763 H 15.442885136354562 58.70342787799883 94.9882130941821 H 0.0 **** 0.06
21764 H 15.104425251422072 60.40864031910716 94.60520810516334 H 0.0 **** 0.06
21765 H 16.730660345132492 59.922871390672604 95.14083976048377 H 0.0 **** 0.06
21766 C 79.22592861553767 53.44432538004986 94.31336698283167 C 0.0 **** -0.24
21767 H 78.23151631240913 53.783361140255295 94.02315662913253 H 0.0 **** 0.06
21768 H 79.72864628293456 53.01105808664198 93.44862971938198 H 0.0 **** 0.06
21769 H 79.13705286197231 52.691390249573885 95.09718518808467 H 0.0 **** 0.06
21770 H 79.80406064534651 54.28981280156387 94.68401157545682 H 0.0 **** 0.06
21771 C 16.644771442613273 80.34911795735027 72.97709861553827 C 0.0 **** -0.24
21772 H 16.141382229897097 79.55847919158836 73.53313615802472 H 0.0 **** 0.06
21773 H 16.68828893958113 81.25100661465328 73.5872954530474 H 0.0 **** 0.06
21774 H 16.091521179652208 80.55581279245288 72.0604964286641 H 0.0 **** 0.06
21775 H 17.656622866085574 80.03018934727265 72.72682002488796 H 0.0 **** 0.06
21776 C 85.65618980443318 22.229384036400575 67.57688136696734 C 0.0 **** -0.24
21777 H 84.82192727631471 22.926227649960822 67.49532065929324 H 0.0 **** 0.06
21778 H 85.47232052494309 21.36729651727235 66.93496752568541 H 0.0 **** 0.06
21779 H 85.75433482378159 21.900459410159442 68.6111449902356 H 0.0 **** 0.06
21780 H 86.5745453152235 22.726001141509784 67.26400803110135 H 0.0 **** 0.06
21781 C 17.01851561817483 21.40455362758992 36.42112069899389 C 0.0 **** -0.24
21782 H 17.518804897212135 20.65552815787358 37.036240769470965 H 0.0 **** 0.06
21783 H 16.028412911518757 21.607028694933334 36.82958196838729 H 0.0 **** 0.06
21784 H 16.921937698281567 21.03055990304538 35.40189868025436 H 0.0 **** 0.06
21785 H 17.60582397760814 22.32196671903798 36.41735830190666 H 0.0 **** 0.06
21786 C 99.13577982047417 28.49857483176939 28.996185334899764 C 0.0 **** -0.24
21787 H 98.1536833341359 28.342302257937718 29.442173550787516 H 0.0 **** 0.06
21788 H 99.80795538904209 27.698566130486284 29.309173044295108 H 0.0 **** 0.06
21789 H 99.53455979545106 29.457788822357458 29.324755150549606 H 0.0 **** 0.06
21790 H 99.0459362291312 28.49382887136059 27.909959885341692 H 0.0 **** 0.06
21791 C 112.73457144486648 98.33705482419458 57.52823073351618 C 0.0 **** -0.24
21792 H 112.09690684302453 97.57525637905161 57.08069630393729 H 0.0 **** 0.06
21793 H 112.18207517374107 99.27421432492852 57.6016208856698 H 0.0 **** 0.06
21794 H 113.61763807379694 98.48313987668931 56.90512184389175 H 0.0 **** 0.06
21795 H 113.04155974068767 98.01649741096301 58.52320369653833 H 0.0 **** 0.06
21796 C 30.952542444962376 66.00960582068524 78.79427930582574 C 0.0 **** -0.24
21797 H 30.397807775683134 66.87928006317233 78.44110041835614 H 0.0 **** 0.06
21798 H 31.812523324317738 66.33908866831933 79.37624665676299 H 0.0 **** 0.06
21799 H 31.293125203669263 65.42564581361214 77.9389306909689 H 0.0 **** 0.06
21800 H 30.304015414385333 65.39458574888204 79.41825297140409 H 0.0 **** 0.06
21801 C 51.08653441931395 111.67350367916124 115.064394138793 C 0.0 **** -0.24
21802 H 50.449470876878834 111.5618713991098 114.18690430006276 H 0.0 **** 0.06
21803 H 51.41553943986236 112.70989591611603 115.14488635811 H 0.0 **** 0.06
21804 H 51.95526313055811 111.02293945772686 114.96841656158327 H 0.0 **** 0.06
21805 H 50.52454926595317 111.39981325528075 115.95724427065863 H 0.0 **** 0.06
21806 C 43.93895528265803 80.32446181995775 3.1304021477077413 C 0.0 **** -0.24
21807 H 44.92148629877234 79.88491355922281 2.9610084898660602 H 0.0 **** 0.06
21808 H 43.76210217821387 81.1115975396915 2.397967561042549 H 0.0 **** 0.06
21809 H 43.89817695834894 80.74707652264021 4.134574991286684 H 0.0 **** 0.06
21810 H 43.173986791603326 79.55474599375194 3.028928631725421 H 0.0 **** 0.06
21811 C 62.771613724750985 22.227159451128173 30.32911858290796 C 0.0 **** -0.24
21812 H 63.66408801670418 22.757504932844824 29.994013305444128 H 0.0 **** 0.06
21813 H 62.40755348899767 21.584907248777313 29.526699473549478 H 0.0 **** 0.06
21814 H 62.00017081093734 22.949280277866194 30.596128805366703 H 0.0 **** 0.06
21815 H 63.0174356755636 21.61842660301579 31.199561601153697 H 0.0 **** 0.06
21816 C 25.148227089869266 83.95361808330259 44.43641479303324 C 0.0 **** -0.24
21817 H 25.968473352427623 84.0497321246518 43.724467228988594 H 0.0 **** 0.06
21818 H 24.2499791476379 84.40804940204032 44.01903258205629 H 0.0 **** 0.06
21819 H 25.413663172685162 84.45726733894816 45.36603205499707 H 0.0 **** 0.06
21820 H 24.962890234431796 82.89773314662787 44.63480684795108 H 0.0 **** 0.06
21821 C 31.985246773069598 37.78551569212302 62.61194441149581 C 0.0 **** -0.24
21822 H 32.52268149013901 37.95102961522387 63.54505326346634 H 0.0 **** 0.06
21823 H 31.11632483868172 37.153944486576194 62.80073978755877 H 0.0 **** 0.06
21824 H 32.64258022798404 37.29372242426019 61.89516814350628 H 0.0 **** 0.06
21825 H 31.6571740277694 38.74317703322785 62.20690095964102 H 0.0 **** 0.06
21826 C 111.94970242355544 74.84194862899358 117.00494380787404 C 0.0 **** -0.24
21827 H 111.11780536010565 74.42341840999495 117.5720900885986 H 0.0 **** 0.06
21828 H 112.160852130612 75.85056160138117 117.35994351421522 H 0.0 **** 0.06
21829 H 111.68704234232183 74.87496299343309 115.94785212294687 H 0.0 **** 0.06
21830 H 112.83260618471962 74.21654709599193 117.14055004695786 H 0.0 **** 0.06
21831 C 34.09143089585895 3.143708144164636 43.69059465063086 C 0.0 **** -0.24
21832 H 33.00885034788833 3.0509516544466173 43.60724185735245 H 0.0 **** 0.06
21833 H 34.463478184839715 3.7906803481498077 42.89533684030157 H 0.0 **** 0.06
21834 H 34.549324709078945 2.1583221957927314 43.60178056362709 H 0.0 **** 0.06
21835 H 34.34528056005652 3.576412435790731 44.659106685341825 H 0.0 **** 0.06
21836 C 91.06942243653859 74.09524234970445 100.72108613708477 C 0.0 **** -0.24
21837 H 90.15061108179813 74.23036734015955 100.14894004008733 H 0.0 **** 0.06
21838 H 91.13047370968067 73.06530949500322 101.07204505406972 H 0.0 **** 0.06
21839 H 91.06724592628976 74.77171960917667 101.57487816386603 H 0.0 **** 0.06
21840 H 91.92718907851636 74.31467166351084 100.0850049189385 H 0.0 **** 0.06
21841 C 121.32315963122709 54.21714188600142 73.07316471889058 C 0.0 **** -0.24
21842 H 121.89067601270817 55.02993058205451 73.52701916011392 H 0.0 **** 0.06
21843 H 121.59446690842255 53.274325631248665 73.55018999010031 H 0.0 **** 0.06
21844 H 121.55194932155078 54.16538820918908 72.00895988278322 H 0.0 **** 0.06
21845 H 120.25768977517512 54.40000867273269 73.20798231093329 H 0.0 **** 0.06
21846 C 15.093698346375731 88.99430781279867 47.110293051043485 C 0.0 **** -0.24
21847 H 14.408005797920225 89.38030339427212 47.8636456852924 H 0.0 **** 0.06
21848 H 15.974896695182053 88.57709745745632 47.59951204004285 H 0.0 **** 0.06
21849 H 15.396852510718531 89.80380349194783 46.44579514821464 H 0.0 **** 0.06
21850 H 14.596323667819831 88.21605118735448 46.53162978727603 H 0.0 **** 0.06
21851 C 1.365572029464559 62.34263694904667 109.44056701554456 C 0.0 **** -0.24
21852 H 0.29344178112626196 62.21770206821869 109.5923403186402 H 0.0 **** 0.06
21853 H 1.5813747678842844 63.38694228236211 109.21300883853348 H 0.0 **** 0.06
21854 H 1.690620112799607 61.71554773978824 108.61115582385725 H 0.0 **** 0.06
21855 H 1.8973871829687283 62.05131830758476 110.34664993278602 H 0.0 **** 0.06
21856 C 7.713645809463316 93.45569691578663 112.32238335808788 C 0.0 **** -0.24
21857 H 7.526747712195657 93.72089185158183 111.28166827219374 H 0.0 **** 0.06
21858 H 8.438872081137589 94.14993314190394 112.7488175719817 H 0.0 **** 0.06
21859 H 8.108426295380553 92.44055009418665 112.37404069074151 H 0.0 **** 0.06
21860 H 6.781848609221527 93.51170406410225 112.88456506244464 H 0.0 **** 0.06
21861 C 82.24350755274742 27.177041392539707 64.6206500782356 C 0.0 **** -0.24
21862 H 82.9531782551384 27.978630889470367 64.82172175332369 H 0.0 **** 0.06
21863 H 82.07835414433015 27.100450049784314 63.54548808886202 H 0.0 **** 0.06
21864 H 81.29875770871641 27.395965634138463 65.11866620237407 H 0.0 **** 0.06
21865 H 82.64255196095598 26.234843106783245 64.9959393850113 H 0.0 **** 0.06
21866 C 88.73874225405302 51.828435644261354 107.06906243319145 C 0.0 **** -0.24
21867 H 89.4577643898846 52.44987546619651 106.53472276759283 H 0.0 **** 0.06
21868 H 88.39069762138371 51.03075543210833 106.4136272480591 H 0.0 **** 0.06
21869 H 87.89108604671978 52.43965302046163 107.37917275548017 H 0.0 **** 0.06
21870 H 89.21480858072695 51.39532825818842 107.94836666643397 H 0.0 **** 0.06
21871 C 88.31804085585404 59.40292431019057 104.01141032539402 C 0.0 **** -0.24
21872 H 88.88473465583257 58.97017367382344 103.18768216126358 H 0.0 **** 0.06
21873 H 87.71894429175379 58.62597457090962 104.48745717085046 H 0.0 **** 0.06
21874 H 87.66157672164002 60.18441589863966 103.6289526699511 H 0.0 **** 0.06
21875 H 89.00576561309214 59.83034067658528 104.74128911821464 H 0.0 **** 0.06
21876 C 71.53943532487449 10.8694711418934 84.92732394858251 C 0.0 **** -0.24
21877 H 71.96368598946265 9.8871496292021 84.71698134981895 H 0.0 **** 0.06
21878 H 72.34107316218544 11.563389339841706 85.18390833244536 H 0.0 **** 0.06
21879 H 70.84351459799603 10.792942599086487 85.76327843426023 H 0.0 **** 0.06
21880 H 71.01120823721092 11.233694966679082 84.04633969077622 H 0.0 **** 0.06
21881 C 45.08450560318454 32.93046563080355 74.91575108269424 C 0.0 **** -0.24
21882 H 45.18686327199697 33.60085412527883 75.76886788663833 H 0.0 **** 0.06
21883 H 44.027312985041476 32.795520611480754 74.684569754937 H 0.0 **** 0.06
21884 H 45.52943339562188 31.96431634855719 75.15744313606785 H 0.0 **** 0.06
21885 H 45.593843590753295 33.35954426834684 74.05354785782228 H 0.0 **** 0.06
21886 C 22.75825531926739 81.89251152473443 34.14113053439394 C 0.0 **** -0.24
21887 H 22.850998630235196 82.13661205177442 35.19864490884973 H 0.0 **** 0.06
21888 H 22.143008035314693 82.64501578421056 33.647227423218084 H 0.0 **** 0.06
21889 H 22.291377489456124 80.91354123673966 34.03324916224801 H 0.0 **** 0.06
21890 H 23.747917955021677 81.87459599277051 33.6844829239582 H 0.0 **** 0.06
21891 C 46.43787969554771 46.2184258728578 13.866284160170242 C 0.0 **** -0.24
21892 H 45.75513838278374 45.3745744301452 13.777661032527153 H 0.0 **** 0.06
21893 H 45.875475402929894 47.115160426102086 14.12795327622516 H 0.0 **** 0.06
21894 H 46.94924725896024 46.374761285013186 12.915984400371023 H 0.0 **** 0.06
21895 H 47.1728666300749 46.01038403315176 14.643930567436396 H 0.0 **** 0.06
21896 C 20.780528388439166 106.99844431900013 70.7072575344418 C 0.0 **** -0.24
21897 H 21.344481630855853 107.82780985899811 70.27953132339579 H 0.0 **** 0.06
21898 H 21.37019340349451 106.52634393578438 71.4931357260715 H 0.0 **** 0.06
21899 H 20.561885949153748 106.26871679671939 69.92785947344666 H 0.0 **** 0.06
21900 H 19.846725956378975 107.372918287012 71.1263641810603 H 0.0 **** 0.06
21901 C 116.03577650093786 100.85074688110541 53.673620803525374 C 0.0 **** -0.24
21902 H 115.73169107986308 100.0338152812443 54.328991703659376 H 0.0 **** 0.06
21903 H 115.18230066617895 101.17314029112765 53.07773358188742 H 0.0 **** 0.06
21904 H 116.83214987494733 100.50791693089718 53.01344645226137 H 0.0 **** 0.06
21905 H 116.39606382344675 101.6841400732776 54.27585738699596 H 0.0 **** 0.06
21906 C 74.4172589691 30.013868271544624 67.79695660193579 C 0.0 **** -0.24
21907 H 75.49165414756018 29.975486119620456 67.61709848417468 H 0.0 **** 0.06
21908 H 73.94088906399014 30.614172051083898 67.02153720520926 H 0.0 **** 0.06
21909 H 74.22790455061323 30.463241970630747 68.77211215171911 H 0.0 **** 0.06
21910 H 74.00932854319433 29.00363717747524 67.77764361990205 H 0.0 **** 0.06
21911 C 86.13550177944603 33.58244800525885 69.47009358253268 C 0.0 **** -0.24
21912 H 85.62720852056526 34.5456982198461 69.43523560409523 H 0.0 **** 0.06
21913 H 87.16929615003352 33.72886804331555 69.7848975945306 H 0.0 **** 0.06
21914 H 86.11733542303165 33.12580239721148 68.48053261909564 H 0.0 **** 0.06
21915 H 85.62750748842777 32.9302563334492 70.18064193636843 H 0.0 **** 0.06
21916 C 55.30524484509439 39.613076185045145 104.78520916835942 C 0.0 **** -0.24
21917 H 55.384618776519886 40.06210535613269 105.77508779429948 H 0.0 **** 0.06
21918 H 56.23062503617609 39.08643362770232 104.55056202184846 H 0.0 **** 0.06
21919 H 55.13408266862379 40.39507215758391 104.045403154073 H 0.0 **** 0.06
21920 H 54.473032156526585 38.910141099613384 104.76983481846486 H 0.0 **** 0.06
21921 C 106.72654928590802 37.89049510629522 21.78615835065108 C 0.0 **** -0.24
21922 H 106.84280863025793 38.908241593363584 22.15839210754327 H 0.0 **** 0.06
21923 H 107.19301224180623 37.194322253272446 22.48333537954305 H 0.0 **** 0.06
21924 H 107.20421389561588 37.80335704242046 20.810484949913544 H 0.0 **** 0.06
21925 H 105.66567362104766 37.65675892303645 21.693928328725413 H 0.0 **** 0.06
21926 C 94.25619296050868 3.803507790263211 8.512223700813308 C 0.0 **** -0.24
21927 H 94.41358031930315 2.7474606835375823 8.29051687713931 H 0.0 **** 0.06
21928 H 94.89064472045769 4.097696407477514 9.348403203292406 H 0.0 **** 0.06
21929 H 93.21073268743666 3.9667434051405053 8.773064756971365 H 0.0 **** 0.06
21930 H 94.50963167039345 4.399709058283918 7.6351484220958525 H 0.0 **** 0.06
21931 C 45.317233582193865 93.4732561158799 45.56146621612413 C 0.0 **** -0.24
21932 H 44.98069851597762 92.74244934597863 46.29783556998996 H 0.0 **** 0.06
21933 H 44.97088965327342 94.46570142260711 45.851213290437386 H 0.0 **** 0.06
21934 H 44.9098721190349 93.21677738287829 44.58335403181147 H 0.0 **** 0.06
21935 H 46.40590117808247 93.46699433591058 45.51460741136003 H 0.0 **** 0.06
21936 C 24.22930728320523 72.33663355013854 85.75445839915378 C 0.0 **** -0.24
21937 H 24.4992252160649 71.5958000291331 85.00189602344813 H 0.0 **** 0.06
21938 H 25.073276174946756 73.00634897511756 85.92310581830966 H 0.0 **** 0.06
21939 H 23.974043954911366 71.83258455781763 86.68590850760577 H 0.0 **** 0.06
21940 H 23.372316787410682 72.91279197411447 85.405760990262 H 0.0 **** 0.06
21941 C 38.466834751269175 42.980653306267754 44.74292893498101 C 0.0 **** -0.24
21942 H 37.47169606706137 42.774714634579816 44.348061335270486 H 0.0 **** 0.06
21943 H 38.81521780192202 43.9431516848133 44.36673441497936 H 0.0 **** 0.06
21944 H 39.15266853819605 42.195634236208186 44.42421713584169 H 0.0 **** 0.06
21945 H 38.42794724803866 43.00843926165951 45.83198854990036 H 0.0 **** 0.06
21946 C 38.75151423557742 20.882862226084796 55.323626568302046 C 0.0 **** -0.24
21947 H 39.059152174304415 21.232729919870444 54.33887352747968 H 0.0 **** 0.06
21948 H 37.75876843196977 20.43623061800974 55.257784521249874 H 0.0 **** 0.06
21949 H 38.72633492406429 21.72350387524572 56.01664223925275 H 0.0 **** 0.06
21950 H 39.46154530613363 20.137108022940353 55.68239491538944 H 0.0 **** 0.06
21951 C 119.7747415381165 9.29058888382977 42.84974277184295 C 0.0 **** -0.24
21952 H 120.75581582970636 9.736755601026317 43.01362578546273 H 0.0 **** 0.06
21953 H 119.2669206380874 9.168780239024443 43.80577814769978 H 0.0 **** 0.06
21954 H 119.89362475185646 8.317568311566959 42.37303753878981 H 0.0 **** 0.06
21955 H 119.18364037851637 9.940305701917822 42.203733757425056 H 0.0 **** 0.06
21956 C 63.58779188426107 50.55108132565789 96.4311016035258 C 0.0 **** -0.24
21957 H 63.302713848333546 50.240111104497714 95.42545841122791 H 0.0 **** 0.06
21958 H 63.44782233158963 51.627846067268266 96.53072786132884 H 0.0 **** 0.06
21959 H 64.63508388877841 50.302887803817114 96.60457951302365 H 0.0 **** 0.06
21960 H 62.96549253969777 50.03352861850311 97.16081306842958 H 0.0 **** 0.06
21961 C 30.882855902563392 72.34128674426472 41.40900750403233 C 0.0 **** -0.24
21962 H 30.047312699882582 72.50310955401042 40.727324209238105 H 0.0 **** 0.06
21963 H 30.681587624369286 72.84460837998 42.35468162469374 H 0.0 **** 0.06
21964 H 31.794305590312433 72.74429381632456 40.967940759625805 H 0.0 **** 0.06
21965 H 31.0058196911466 71.2727589655224 41.58575427870812 H 0.0 **** 0.06
21966 C 57.883601907109835 35.927433379697455 11.949834042178548 C 0.0 **** -0.24
21967 H 58.30396175377081 36.3081785106449 12.880585816938403 H 0.0 **** 0.06
21968 H 57.684685696624854 34.8602117795551 12.052511111141772 H 0.0 **** 0.06
21969 H 58.59293604446802 36.08882320584933 11.137565869945416 H 0.0 **** 0.06
21970 H 56.953811771772024 36.45144568723331 11.730367670639545 H 0.0 **** 0.06
21971 C 6.343235761253254 33.59559425262918 44.70378270609524 C 0.0 **** -0.24
21972 H 6.242558181530143 33.831490280383576 43.64457158626567 H 0.0 **** 0.06
21973 H 7.397850323290442 33.60959754998157 44.980671161011514 H 0.0 **** 0.06
21974 H 5.92967035416379 32.60528160087338 44.895262868608256 H 0.0 **** 0.06
21975 H 5.801575636587842 34.33507694014162 45.293411217644405 H 0.0 **** 0.06
21976 C 74.99036119275709 89.00948286929614 0.41492448942088345 C 0.0 **** -0.24
21977 H 75.28244433982923 88.91172127397746 -0.6301282239477501 H 0.0 **** 0.06
21978 H 75.52586161504405 88.27049540304111 1.0115424503432706 H 0.0 **** 0.06
21979 H 73.91745147564876 88.8456568654426 0.5089714834433465 H 0.0 **** 0.06
21980 H 75.23692816908206 90.01038755917335 0.768719117595694 H 0.0 **** 0.06
21981 C 116.48672158600148 67.78343117073439 100.72131954477732 C 0.0 **** -0.24
21982 H 117.36604445724842 67.85462329983812 101.36211135330646 H 0.0 **** 0.06
21983 H 116.31257600657675 66.74009576397071 100.45820041673235 H 0.0 **** 0.06
21984 H 116.65207269747313 68.3650946977993 99.8138628027163 H 0.0 **** 0.06
21985 H 115.61896602225983 68.17544037429508 101.25011732711789 H 0.0 **** 0.06
21986 C 42.70733853854681 110.86678543352622 91.76661890650436 C 0.0 **** -0.24
21987 H 42.20245900419356 111.74584896753402 92.16701880792698 H 0.0 **** 0.06
21988 H 42.23883795235129 109.96661184617693 92.16400011019513 H 0.0 **** 0.06
21989 H 43.75769768844538 110.8891189815258 92.05661715485437 H 0.0 **** 0.06
21990 H 42.63027490162532 110.86793279511036 90.67944964829042 H 0.0 **** 0.06
21991 C 45.45964183965484 65.99268259680147 83.72642994179063 C 0.0 **** -0.24
21992 H 44.856536315817046 66.02617779087123 82.8198777646515 H 0.0 **** 0.06
21993 H 45.85267382386922 64.98442392063842 83.86320904532073 H 0.0 **** 0.06
21994 H 44.842332324080715 66.26132021847582 84.58349464315705 H 0.0 **** 0.06
21995 H 46.28669154718296 66.69683648780531 83.63915925697114 H 0.0 **** 0.06
21996 C 23.186792117421525 76.04266323011461 57.73438863808465 C 0.0 **** -0.24
21997 H 22.136757111556555 76.07764698731188 57.44057600256926 H 0.0 **** 0.06
21998 H 23.4135115585618 75.06204904721221 58.152944791521946 H 0.0 **** 0.06
21999 H 23.380222901801062 76.8115142724518 58.48173305538293 H 0.0 **** 0.06
22000 H 23.814295771006755 76.21930545434338 56.86048083372418 H 0.0 **** 0.06
22001 C 104.09946046299086 9.073404917513603 8.601579075675005 C 0.0 **** -0.24
22002 H 103.78516225364001 9.108747793328899 7.558070238796233 H 0.0 **** 0.06
22003 H 104.96439075805608 8.41817564156296 8.698063446696125 H 0.0 **** 0.06
22004 H 103.28218612894779 8.689552086077974 9.213156432099368 H 0.0 **** 0.06
22005 H 104.36301216281777 10.077013769841397 8.93546664057115 H 0.0 **** 0.06
22006 C 83.17209089901715 9.183862049206098 14.427787704215511 C 0.0 **** -0.24
22007 H 83.42718922016093 8.813234246401606 15.420280511710924 H 0.0 **** 0.06
22008 H 83.9747287391234 9.824829551771586 14.062306764218608 H 0.0 **** 0.06
22009 H 82.24542090779121 9.754695976408783 14.480536564071485 H 0.0 **** 0.06
22010 H 83.04135223263424 8.34134954939529 13.748343634704124 H 0.0 **** 0.06
22011 C 65.01256016658752 118.09991198381854 32.2773600052293 C 0.0 **** -0.24
22012 H 64.95740882604164 119.11260534685192 32.677982852920934 H 0.0 **** 0.06
22013 H 65.91604107270467 117.61235937603635 32.6453680338326 H 0.0 **** 0.06
22014 H 65.03956421613185 118.14145925143322 31.187912987502557 H 0.0 **** 0.06
22015 H 64.13736434247261 117.53407037585058 32.597051554830784 H 0.0 **** 0.06
22016 C 95.0848763181825 23.898429279632012 109.47343466303809 C 0.0 **** -0.24
22017 H 95.95330145129904 23.7453596851326 108.83334594090098 H 0.0 **** 0.06
22018 H 95.41606127954503 24.113818953878123 110.48977466026543 H 0.0 **** 0.06
22019 H 94.47047644132442 22.998164649396585 109.47530774931363 H 0.0 **** 0.06
22020 H 94.4994132047697 24.73686572220113 109.09661191498898 H 0.0 **** 0.06
22021 C 41.4490459900276 7.218929600077161 13.447584719722624 C 0.0 **** -0.24
22022 H 41.06090972418036 7.079817970694023 14.456530365249378 H 0.0 **** 0.06
22023 H 42.1996827884395 8.009555349621849 13.452632113112859 H 0.0 **** 0.06
22024 H 40.632879610644096 7.496059581710341 12.779978119418079 H 0.0 **** 0.06
22025 H 41.901762558346746 6.2892504191470096 13.101364392034242 H 0.0 **** 0.06
22026 C 43.09104553908851 109.66635175077661 122.09586092047493 C 0.0 **** -0.24
22027 H 42.13966101473719 110.14372554682674 122.33182258650959 H 0.0 **** 0.06
22028 H 43.90973561303875 110.31827278419587 122.39940600558793 H 0.0 **** 0.06
22029 H 43.14927855605236 109.48463627665481 121.0224627842988 H 0.0 **** 0.06
22030 H 43.16382928458415 108.71882048954893 122.6293242668196 H 0.0 **** 0.06
22031 C 93.42436862937188 97.42695404114878 37.21285278774559 C 0.0 **** -0.24
22032 H 93.8261573115328 97.69608068491019 38.18950462535253 H 0.0 **** 0.06
22033 H 94.14698299620673 96.80715001864027 36.68180326746591 H 0.0 **** 0.06
22034 H 93.22877365916827 98.33235015061436 36.63782961233562 H 0.0 **** 0.06
22035 H 92.49501294125781 96.8715414432651 37.3427413295359 H 0.0 **** 0.06
22036 C 99.20405040635012 119.67268175368037 48.16811858840492 C 0.0 **** -0.24
22037 H 99.03728575227294 119.48095602348002 47.108437556332234 H 0.0 **** 0.06
22038 H 99.28137586943672 118.7248308894429 48.70047901580509 H 0.0 **** 0.06
22039 H 98.36944280087397 120.24799044759078 48.56868590514587 H 0.0 **** 0.06
22040 H 100.12830361342839 120.2361896237781 48.2936972020282 H 0.0 **** 0.06
22041 C 82.47802546906519 64.03968716233058 3.272137027341813 C 0.0 **** -0.24
22042 H 82.23967467072697 63.02542920378654 3.5914124323133763 H 0.0 **** 0.06
22043 H 81.60770740213917 64.48102937459424 2.7858791991270095 H 0.0 **** 0.06
22044 H 83.31201092207993 64.01285269779083 2.570376142726502 H 0.0 **** 0.06
22045 H 82.7519915710156 64.63824289042483 4.140637872259049 H 0.0 **** 0.06
22046 C 39.190392365676516 69.41377661508238 92.59682550131464 C 0.0 **** -0.24
22047 H 39.68373069291062 69.2054130255965 93.54603676428647 H 0.0 **** 0.06
22048 H 38.59732990569849 70.3245131814981 92.6885372031494 H 0.0 **** 0.06
22049 H 38.53828909006565 68.57988856051008 92.33511723820644 H 0.0 **** 0.06
22050 H 39.94123652628633 69.54651587042679 91.81834208602689 H 0.0 **** 0.06
22051 C 87.83497020268567 81.00565823816788 120.6196414625835 C 0.0 **** -0.24
22052 H 88.53958728021578 80.31016333637191 120.1642869701443 H 0.0 **** 0.06
22053 H 88.23480422320051 82.01839069786047 120.56193625990454 H 0.0 **** 0.06
22054 H 87.6803291513545 80.73414984551476 121.66429571798176 H 0.0 **** 0.06
22055 H 86.88401133249317 80.95910873624516 120.08813271415033 H 0.0 **** 0.06
22056 C 72.40133996702099 27.590862903221826 100.78606861832719 C 0.0 **** -0.24
22057 H 72.91863708823772 27.468787654010363 101.7382154061516 H 0.0 **** 0.06
22058 H 72.17769423586572 28.64617795158138 100.62698085757324 H 0.0 **** 0.06
22059 H 71.47277957241639 27.020597541785897 100.80197826107548 H 0.0 **** 0.06
22060 H 73.03650854443165 27.22866417934766 99.97825363880204 H 0.0 **** 0.06
22061 C 51.218498369814455 55.61028331178687 99.90521448715114 C 0.0 **** -0.24
22062 H 51.32220542525923 55.661483777102774 100.98881148690765 H 0.0 **** 0.06
22063 H 51.7446810639878 56.44887686831481 99.44936392221612 H 0.0 **** 0.06
22064 H 50.16189964837358 55.65709677374585 99.63957595568269 H 0.0 **** 0.06
22065 H 51.643209816960734 54.67463654451066 99.54340187557807 H 0.0 **** 0.06
22066 C 119.89323991977902 71.57072765170383 69.01080744213206 C 0.0 **** -0.24
22067 H 119.91498588594837 70.82867350231209 68.21275050405092 H 0.0 **** 0.06
22068 H 119.87230068883548 71.06513372282257 69.97626456734793 H 0.0 **** 0.06
22069 H 119.00431600245675 72.19158231549233 68.9058321839222 H 0.0 **** 0.06
22070 H 120.78313742502594 72.19787107046048 68.94707552246479 H 0.0 **** 0.06
22071 C 13.48288888091037 109.21674182046826 14.828179707457622 C 0.0 **** -0.24
22072 H 13.509722423277378 108.13382652539175 14.708369291073495 H 0.0 **** 0.06
22073 H 12.59202743075544 109.49886950315653 15.38848759138736 H 0.0 **** 0.06
22074 H 13.46069115025988 109.68997661624337 13.846346607211132 H 0.0 **** 0.06
22075 H 14.371135701094374 109.54406893971651 15.368585736284672 H 0.0 **** 0.06
22076 C 106.40300676233772 25.755771800852443 71.11433831591734 C 0.0 **** -0.24
22077 H 107.02249852963547 26.599474545887517 71.42023178936986 H 0.0 **** 0.06
22078 H 105.35105175467214 26.02477423699125 71.21190625099612 H 0.0 **** 0.06
22079 H 106.6205202956532 24.897027887380233 71.74962399677793 H 0.0 **** 0.06
22080 H 106.619723415723 25.504075469869832 70.07645636424772 H 0.0 **** 0.06
22081 C 87.03745896841141 47.61306422590121 93.5399095831715 C 0.0 **** -0.24
22082 H 87.89427953775919 48.25223767841567 93.75214981955742 H 0.0 **** 0.06
22083 H 86.55202643628897 47.94998846908993 92.62306906680791 H 0.0 **** 0.06
22084 H 86.3297907639224 47.668399209686186 94.36701953566529 H 0.0 **** 0.06
22085 H 87.37351374219793 46.5836127199442 93.4172437957281 H 0.0 **** 0.06
22086 C 26.603166845590636 80.58023167402357 110.57361943529077 C 0.0 **** -0.24
22087 H 26.513835041429488 81.25681979550905 109.72427767969566 H 0.0 **** 0.06
22088 H 27.645412034393182 80.28091491770368 110.69196077768436 H 0.0 **** 0.06
22089 H 25.98779564855606 79.69732883912167 110.4012361626751 H 0.0 **** 0.06
22090 H 26.266097799982205 81.08658713055061 111.47850383652519 H 0.0 **** 0.06
22091 C 33.02165592934827 32.05580551359229 117.07586427696887 C 0.0 **** -0.24
22092 H 32.152016469776214 32.21634674100392 116.438644649705 H 0.0 **** 0.06
22093 H 32.71985238042549 31.510866965892546 117.97080716580838 H 0.0 **** 0.06
22094 H 33.4460510389259 33.018467111587455 117.36131406133296 H 0.0 **** 0.06
22095 H 33.768333160230156 31.476758367353938 116.53157327155066 H 0.0 **** 0.06
22096 C 43.66687133087862 71.06792432910899 62.79252589918062 C 0.0 **** -0.24
22097 H 44.07795225159106 72.03737185097859 62.51290643115598 H 0.0 **** 0.06
22098 H 43.49343071107913 70.47338903375453 61.895453843177506 H 0.0 **** 0.06
22099 H 42.723899504961395 71.21229934536564 63.32023333924596 H 0.0 **** 0.06
22100 H 44.37133284844259 70.54900149765558 63.442563739647056 H 0.0 **** 0.06
22101 C 67.72014431073606 81.0508743086084 36.13133586855275 C 0.0 **** -0.24
22102 H 67.99608779571392 81.08120320854056 37.1855780142115 H 0.0 **** 0.06
22103 H 66.69194706542802 81.39488034875666 36.01529515202412 H 0.0 **** 0.06
22104 H 67.80530047742067 80.02884009586182 35.76283404175132 H 0.0 **** 0.06
22105 H 68.38689631185284 81.69921670524022 35.562847492335834 H 0.0 **** 0.06
22106 C 16.171185819529455 93.14174630458245 59.653597708238664 C 0.0 **** -0.24
22107 H 15.351843696779838 93.21566274416381 60.36858509891681 H 0.0 **** 0.06
22108 H 16.262498193769204 94.08129257840807 59.10747496801744 H 0.0 **** 0.06
22109 H 15.969630603118901 92.33136688932996 58.953036627063995 H 0.0 **** 0.06
22110 H 17.100439237591672 92.93893851010316 60.186641093198915 H 0.0 **** 0.06
22111 C 83.00058021935027 71.7268338601915 21.313249128800635 C 0.0 **** -0.24
22112 H 82.4715396628983 72.0222640164163 20.407076268240928 H 0.0 **** 0.06
22113 H 83.3049220675432 72.61850969978573 21.86149850264769 H 0.0 **** 0.06
22114 H 83.88274418972202 71.14504069535062 21.045395454658433 H 0.0 **** 0.06
22115 H 82.34290501855267 71.12307351564431 21.93714319496712 H 0.0 **** 0.06
22116 C 59.25674388767603 74.03011800328551 64.8221151661055 C 0.0 **** -0.24
22117 H 60.12938270154299 74.68064506707975 64.87419327677065 H 0.0 **** 0.06
22118 H 58.703529274838694 74.08950597670321 65.76037999584236 H 0.0 **** 0.06
22119 H 59.57886864653758 73.00304468535674 64.65301129137183 H 0.0 **** 0.06
22120 H 58.61428308156033 74.34903896207368 64.00062765501136 H 0.0 **** 0.06
22121 C 106.6042102687532 66.78335864608448 45.25015546232211 C 0.0 **** -0.24
22122 H 106.91363787015425 67.74938445486123 44.84982449002554 H 0.0 **** 0.06
22123 H 107.06487115975568 65.98546700779596 44.667698076911336 H 0.0 **** 0.06
22124 H 105.51963199032807 66.69658193379465 45.190667236327215 H 0.0 **** 0.06
22125 H 106.91967233357087 66.70297146844476 46.2904038538353 H 0.0 **** 0.06
22126 C 65.62567414170641 55.858304910274 33.436523705745 C 0.0 **** -0.24
22127 H 65.91608977929826 54.93598910475447 33.939407817832944 H 0.0 **** 0.06
22128 H 64.53962910797296 55.95632642854184 33.45792877333429 H 0.0 **** 0.06
22129 H 65.96779574077038 55.83140821176045 32.4025563760008 H 0.0 **** 0.06
22130 H 66.0772164577368 56.70823701334757 33.94694511390503 H 0.0 **** 0.06
22131 C 77.0122966172587 14.41703977766721 85.47475583043564 C 0.0 **** -0.24
22132 H 77.04177675647577 14.721729465564401 86.52066176214203 H 0.0 **** 0.06
22133 H 76.41608763514444 13.509249313596762 85.37788737172289 H 0.0 **** 0.06
22134 H 78.02699055735025 14.223727121331454 85.12500074363717 H 0.0 **** 0.06
22135 H 76.56687566609787 15.211243060015857 84.87709927833501 H 0.0 **** 0.06
22136 C 20.913114158748982 89.9801763375126 6.796896049417114 C 0.0 **** -0.24
22137 H 20.87551565717692 88.89701407401992 6.679120770709517 H 0.0 **** 0.06
22138 H 21.47395147109478 90.22740172038573 7.698860743465616 H 0.0 **** 0.06
22139 H 19.9000737229521 90.37245653204823 6.879008078580142 H 0.0 **** 0.06
22140 H 21.40531493646577 90.42203484234753 5.930700016066936 H 0.0 **** 0.06
22141 C 30.6473009855344 21.571943717267587 8.281310824157742 C 0.0 **** -0.24
22142 H 30.493687351627784 22.16847470525274 9.18069382042836 H 0.0 **** 0.06
22143 H 31.088199593239196 20.61283338546376 8.552788100715333 H 0.0 **** 0.06
22144 H 31.317061409619583 22.101580707018606 7.603050682473395 H 0.0 **** 0.06
22145 H 29.689568492131087 21.405132712223775 7.78802722854428 H 0.0 **** 0.06
22146 C 78.80534706265831 83.80533215804434 8.684451557744232 C 0.0 **** -0.24
22147 H 79.72832245208366 83.97895853175109 8.130568463836642 H 0.0 **** 0.06
22148 H 78.89754309926448 82.88718905427166 9.264546597447794 H 0.0 **** 0.06
22149 H 77.97440297902409 83.71330408761244 7.985956874486703 H 0.0 **** 0.06
22150 H 78.6226100683067 84.64446433888537 9.356443045096164 H 0.0 **** 0.06
22151 C 58.44378012735089 40.687444565465796 16.25807121105474 C 0.0 **** -0.24
22152 H 58.186625459892156 40.923745651877766 17.290414361483062 H 0.0 **** 0.06
22153 H 57.66643880378595 40.056560568645295 15.82633748542871 H 0.0 **** 0.06
22154 H 59.396627531205546 40.15804821351671 16.23420716755687 H 0.0 **** 0.06
22155 H 58.52540330762224 41.608922043229256 15.683259992349079 H 0.0 **** 0.06
22156 C 59.10153888038695 21.86928054311761 55.20626020290149 C 0.0 **** -0.24
22157 H 58.7070212979366 21.671942993392747 56.20406730588701 H 0.0 **** 0.06
22158 H 58.63434229264687 22.767953881096105 54.80292444333912 H 0.0 **** 0.06
22159 H 58.88191640404043 21.02252515774893 54.5560337731564 H 0.0 **** 0.06
22160 H 60.17945970893687 22.013178570484513 55.26466447436172 H 0.0 **** 0.06
22161 C 79.44333607520338 44.25863960146671 12.859000460002505 C 0.0 **** -0.24
22162 H 79.77139897115003 44.27561663818426 13.898814723554437 H 0.0 **** 0.06
22163 H 79.95375615162285 45.04574919855793 12.304500752539013 H 0.0 **** 0.06
22164 H 78.36638760404063 44.42283066132438 12.815960423275442 H 0.0 **** 0.06
22165 H 79.68104695682854 43.290224765139214 12.419052328138946 H 0.0 **** 0.06
22166 C 64.8120980134259 4.325202352142032 108.85457876988949 C 0.0 **** -0.24
22167 H 63.80038656280467 4.313176528132274 109.2598927750438 H 0.0 **** 0.06
22168 H 65.2369479938591 5.322100744624123 108.969327117038 H 0.0 **** 0.06
22169 H 64.78233358303086 4.061459523406727 107.79682171151615 H 0.0 **** 0.06
22170 H 65.42681443064654 3.6029143202539515 109.39238532806326 H 0.0 **** 0.06
22171 C 90.38337721651519 75.51401441364897 45.50307283513174 C 0.0 **** -0.24
22172 H 89.69945573800624 74.82861976566983 46.00329448249129 H 0.0 **** 0.06
22173 H 89.87117982513698 76.4556664009375 45.302372648692945 H 0.0 **** 0.06
22174 H 90.71665868455054 75.07302383065846 44.56388868341839 H 0.0 **** 0.06
22175 H 91.24539588762309 75.69953584694335 46.14466132846257 H 0.0 **** 0.06
22176 C 92.21272240681924 114.17129918615899 87.13318744020236 C 0.0 **** -0.24
22177 H 92.79145456759531 114.90605315912744 87.6923303354153 H 0.0 **** 0.06
22178 H 91.16133040203636 114.45975365439213 87.1361926165616 H 0.0 **** 0.06
22179 H 92.32344105856822 113.19226002457812 87.59732182086415 H 0.0 **** 0.06
22180 H 92.57556845824524 114.12966735980815 86.1060430099586 H 0.0 **** 0.06
22181 C 85.89346804677675 114.93170585766498 59.577047171142624 C 0.0 **** -0.24
22182 H 85.64820471027576 114.63570350372922 58.55656900405404 H 0.0 **** 0.06
22183 H 85.62855426673258 115.97931687405827 59.72446171850024 H 0.0 **** 0.06
22184 H 86.96185838649055 114.7996329171088 59.74628640526953 H 0.0 **** 0.06
22185 H 85.33477538909548 114.31300494595382 60.27885326221747 H 0.0 **** 0.06
22186 C 45.774194382431176 61.51120181401674 8.13863932242392 C 0.0 **** -0.24
22187 H 44.83777900796491 61.16469481784443 7.700834222327671 H 0.0 **** 0.06
22188 H 46.29961856898467 62.141350289854124 7.420922483191166 H 0.0 **** 0.06
22189 H 46.39611785458993 60.65271034992882 8.392447786152516 H 0.0 **** 0.06
22190 H 45.56216250144058 62.08555626278656 9.041091338978458 H 0.0 **** 0.06
22191 C 63.594392294428424 113.52466230759529 9.31814630538031 C 0.0 **** -0.24
22192 H 62.89049409753259 112.98811870068712 8.68151969140547 H 0.0 **** 0.06
22193 H 64.38482413089665 113.95503298123595 8.701715588064246 H 0.0 **** 0.06
22194 H 64.02990186318777 112.83547177481378 10.040524920809474 H 0.0 **** 0.06
22195 H 63.07095974756802 114.32200959551787 9.846791613793528 H 0.0 **** 0.06
22196 C 109.18301768891018 71.67440817466289 25.21204369556409 C 0.0 **** -0.24
22197 H 108.26061236198817 71.29642050094213 24.771430660990347 H 0.0 **** 0.06
22198 H 109.87971461718345 70.84917065573632 25.35818245687807 H 0.0 **** 0.06
22199 H 108.96210961940724 72.13890671686056 26.172333121219424 H 0.0 **** 0.06
22200 H 109.62813112951312 72.41245076581447 24.544419315421408 H 0.0 **** 0.06
22201 C 113.47274937535445 76.79837520381008 33.10116717656547 C 0.0 **** -0.24
22202 H 112.47762664302246 76.38169750124803 33.25376310471552 H 0.0 **** 0.06
22203 H 114.21197804734409 76.157994250625 33.581676590977224 H 0.0 **** 0.06
22204 H 113.51852579026335 77.79708586880702 33.537585280041526 H 0.0 **** 0.06
22205 H 113.68135773959663 76.858626391228 32.033092991729916 H 0.0 **** 0.06
22206 C 56.33679341633689 49.636264900370094 97.83850882751705 C 0.0 **** -0.24
22207 H 57.166843009239244 50.340995513309224 97.9030352533168 H 0.0 **** 0.06
22208 H 56.156036971958486 49.38320742111887 96.7931872397703 H 0.0 **** 0.06
22209 H 55.44176005604851 50.090373351324786 98.26255112810063 H 0.0 **** 0.06
22210 H 56.584643740634476 48.7322708271831 98.39409862015665 H 0.0 **** 0.06
22211 C 29.481387070224642 62.557454688807375 25.37331833514392 C 0.0 **** -0.24
22212 H 29.355882942346433 63.260016117184826 26.197379194574694 H 0.0 **** 0.06
22213 H 28.635963930884323 62.644610432142194 24.690003045391705 H 0.0 **** 0.06
22214 H 29.529491337061792 61.54175790112496 25.76596849184085 H 0.0 **** 0.06
22215 H 30.404686434104093 62.78476584118166 24.839908468502188 H 0.0 **** 0.06
22216 C 45.21303882085383 65.16504034538707 49.38643630008812 C 0.0 **** -0.24
22217 H 44.44774101162452 65.71352909934359 49.93409713243605 H 0.0 **** 0.06
22218 H 46.19648173943898 65.4244183282758 49.77886493771291 H 0.0 **** 0.06
22219 H 45.163062856710106 65.42731117499113 48.32969435540656 H 0.0 **** 0.06
22220 H 45.046224826058136 64.09386496753791 49.503383192589496 H 0.0 **** 0.06
22221 C 18.759690819599502 55.242776967533416 83.86337127831047 C 0.0 **** -0.24
22222 H 18.905188122126127 55.817107792992346 82.94903780119517 H 0.0 **** 0.06
22223 H 18.36599693039338 55.89508472957414 84.64396844111747 H 0.0 **** 0.06
22224 H 19.71281834779606 54.82393408820599 84.18618807771423 H 0.0 **** 0.06
22225 H 18.0527670536626 54.4336870824294 83.67582513418165 H 0.0 **** 0.06
22226 C 23.87558103355662 90.91820574141221 114.35425023495422 C 0.0 **** -0.24
22227 H 23.449221505696663 90.37844572201342 115.19934712856585 H 0.0 **** 0.06
22228 H 24.498565898544562 90.2411013339314 113.7685560375661 H 0.0 **** 0.06
22229 H 24.483229110377387 91.74586446873599 114.71977583142713 H 0.0 **** 0.06
22230 H 23.072277433956025 91.30617959646273 113.72772748386745 H 0.0 **** 0.06
22231 C 73.41040645845587 85.88789251169226 111.66776498131304 C 0.0 **** -0.24
22232 H 72.55767433247541 86.5587373368725 111.77655524765952 H 0.0 **** 0.06
22233 H 73.42103779836657 85.17670988128813 112.49413318469132 H 0.0 **** 0.06
22234 H 74.332534644916 86.46921005733904 111.67605111681554 H 0.0 **** 0.06
22235 H 73.32991495010191 85.34869237279725 110.72353434501119 H 0.0 **** 0.06
22236 C 5.355739448964982 48.65652407588564 50.36861454829301 C 0.0 **** -0.24
22237 H 4.948007891588304 48.59712230272919 51.377781799336645 H 0.0 **** 0.06
22238 H 6.128431554541066 47.896265125690604 50.24461254457668 H 0.0 **** 0.06
22239 H 5.787769601107698 49.64375870933273 50.20865271944001 H 0.0 **** 0.06
22240 H 4.558777330856628 48.48574016940046 49.6453335984169 H 0.0 **** 0.06
22241 C 0.19471021797212984 122.63907312923604 20.963033909333546 C 0.0 **** -0.24
22242 H 1.0203178580385384 121.97607492981712 21.223404012450032 H 0.0 **** 0.06
22243 H -0.02983077795690292 123.2876773388153 21.810221072952686 H 0.0 **** 0.06
22244 H -0.6848900040143349 122.0440119655853 20.716689006522586 H 0.0 **** 0.06
22245 H 0.47525345575701294 123.24673496828648 20.10314282933882 H 0.0 **** 0.06
22246 C 115.89691207235938 79.86086113156904 12.974696750523137 C 0.0 **** -0.24
22247 H 114.9213612705068 80.11535741058935 12.55943845634701 H 0.0 **** 0.06
22248 H 116.51435166378963 79.40810629445306 12.197009345644233 H 0.0 **** 0.06
22249 H 115.76918983721902 79.15454781054584 13.794182916964331 H 0.0 **** 0.06
22250 H 116.38135659674111 80.76423066098334 13.3438404428112 H 0.0 **** 0.06
22251 C 61.6965507214173 94.87809292862181 38.61807171682409 C 0.0 **** -0.24
22252 H 62.59593201625328 94.26793715483558 38.53447536029654 H 0.0 **** 0.06
22253 H 61.823909079664524 95.79498794562306 38.04243683693156 H 0.0 **** 0.06
22254 H 61.52252161064916 95.12655388909695 39.66471545483506 H 0.0 **** 0.06
22255 H 60.843348357143405 94.32076092510414 38.230196809600045 H 0.0 **** 0.06
22256 C 102.07240390339558 83.80275050729318 8.903649634602736 C 0.0 **** -0.24
22257 H 101.62357979716236 84.7162240794375 9.293624089779946 H 0.0 **** 0.06
22258 H 101.29015753413327 83.15373736911494 8.507724398551144 H 0.0 **** 0.06
22259 H 102.60186814791615 83.28701218243299 9.705385737472085 H 0.0 **** 0.06
22260 H 102.7740101343704 84.05402839818717 8.107864312607624 H 0.0 **** 0.06
22261 C 29.48732945523728 15.453569750848828 42.26902763895751 C 0.0 **** -0.24
22262 H 30.395335979873344 15.236371787129656 41.70541660996096 H 0.0 **** 0.06
22263 H 29.041603965032124 16.37706171831229 41.896405004140234 H 0.0 **** 0.06
22264 H 29.733094000849533 15.568201625208644 43.3240230723834 H 0.0 **** 0.06
22265 H 28.780193688652382 14.633283978058273 42.14698514189436 H 0.0 **** 0.06
22266 C 32.68799222867813 107.21745449081277 108.3327555971841 C 0.0 **** -0.24
22267 H 32.83912576493901 106.18500736066414 108.0187752377118 H 0.0 **** 0.06
22268 H 33.43558409463685 107.48253637201236 109.08137312980045 H 0.0 **** 0.06
22269 H 31.691105135268117 107.32403962849514 108.76169139394355 H 0.0 **** 0.06
22270 H 32.78563145481678 107.87785599630263 107.47154568079443 H 0.0 **** 0.06
22271 C 13.265698984481048 26.44101266590937 38.681080485980914 C 0.0 **** -0.24
22272 H 13.641713628754644 27.290160283334345 39.251608689715084 H 0.0 **** 0.06
22273 H 14.09668216163567 25.788818696633157 38.41087841494286 H 0.0 **** 0.06
22274 H 12.775779394211554 26.799027705932133 37.77670498689076 H 0.0 **** 0.06
22275 H 12.549719959850563 25.885141128407568 39.286855217962085 H 0.0 **** 0.06
22276 C 0.5012801674038201 37.9300964508575 74.44404673369837 C 0.0 **** -0.24
22277 H 0.2811314390479822 38.266040228855054 75.45649443523476 H 0.0 **** 0.06
22278 H 1.4399174830359556 38.37461507652967 74.11034115139375 H 0.0 **** 0.06
22279 H -0.3031819799785751 38.23728517590606 73.77611346975914 H 0.0 **** 0.06
22280 H 0.5887735060960466 36.844119515287915 74.43229570839765 H 0.0 **** 0.06
22281 C 18.629567846807532 7.57336939613549 44.02747059631662 C 0.0 **** -0.24
22282 H 17.58957095686597 7.3707022195038405 44.284025921768546 H 0.0 **** 0.06
22283 H 19.283647602957302 6.995406549604837 44.68196419276319 H 0.0 **** 0.06
22284 H 18.8342718599163 8.635828889478859 44.156106418972115 H 0.0 **** 0.06
22285 H 18.810123040194213 7.29070099192792 42.990763078323994 H 0.0 **** 0.06
22286 C 49.25482562146964 84.7257381661772 51.699170666320896 C 0.0 **** -0.24
22287 H 49.93674373042488 85.21864832874971 52.391120317022086 H 0.0 **** 0.06
22288 H 48.305314703638984 84.5333440925869 52.199760045206034 H 0.0 **** 0.06
22289 H 49.69045590902649 83.78119694570839 51.37129822384816 H 0.0 **** 0.06
22290 H 49.08645268792329 85.36808900068488 50.83479453858206 H 0.0 **** 0.06
22291 C 62.13221487599037 112.05737755942098 76.98180608743314 C 0.0 **** -0.24
22292 H 63.21650696651551 112.15535688127511 77.02987703577276 H 0.0 **** 0.06
22293 H 61.871120800519236 111.0278472789943 76.73833047362274 H 0.0 **** 0.06
22294 H 61.74198306035379 112.72325962603269 76.21164482318761 H 0.0 **** 0.06
22295 H 61.70003922199413 112.32408394156616 77.94623235972597 H 0.0 **** 0.06
22296 C 113.77824246054865 121.42549827189177 9.353864108914735 C 0.0 **** -0.24
22297 H 113.0501451439363 122.23503419808789 9.398146991795954 H 0.0 **** 0.06
22298 H 114.56816130561418 121.68648039998698 8.648882739885806 H 0.0 **** 0.06
22299 H 113.28561336821588 120.51019059374931 9.02632091853323 H 0.0 **** 0.06
22300 H 114.21063039947603 121.27144522031752 10.34318434598893 H 0.0 **** 0.06
22301 C 108.40866454456548 68.42685805040216 107.7722847574887 C 0.0 **** -0.24
22302 H 107.35585932005918 68.63979899391433 107.5856635663495 H 0.0 **** 0.06
22303 H 108.67693521819186 68.77173091246325 108.77162892587802 H 0.0 **** 0.06
22304 H 109.02050571174482 68.94318621472664 107.03252888797354 H 0.0 **** 0.06
22305 H 108.58053128940006 67.35248907890278 107.70044248297853 H 0.0 **** 0.06
22306 C 99.65977498248242 44.39479178789338 37.21580139195072 C 0.0 **** -0.24
22307 H 99.15036503750693 45.20606648267068 37.73542624019319 H 0.0 **** 0.06
22308 H 100.21836361103232 44.799063477931895 36.37113854863401 H 0.0 **** 0.06
22309 H 98.92539435465008 43.67474632780369 36.8555102187664 H 0.0 **** 0.06
22310 H 100.34684382499492 43.899054578235734 37.90233850832544 H 0.0 **** 0.06
22311 C 5.8581055582737065 8.482071547564317 118.9318528612802 C 0.0 **** -0.24
22312 H 5.408931682167179 8.454196282063123 117.93885691263375 H 0.0 **** 0.06
22313 H 6.145563732047236 7.4731375763518315 119.22823131337833 H 0.0 **** 0.06
22314 H 5.13664698191802 8.879666577125931 119.64583595513626 H 0.0 **** 0.06
22315 H 6.7410286663085515 9.121094691305842 118.91310867070364 H 0.0 **** 0.06
22316 C 84.29588354262043 30.406675684048047 28.909375013105958 C 0.0 **** -0.24
22317 H 84.73279020968084 30.17772453580025 29.881649199793173 H 0.0 **** 0.06
22318 H 84.54858992297375 29.61555755940843 28.20223441854351 H 0.0 **** 0.06
22319 H 84.69059929350115 31.356258840537038 28.547856770550595 H 0.0 **** 0.06
22320 H 83.21287798404668 30.476195637712074 29.00519776212218 H 0.0 **** 0.06
22321 C 61.43633495952596 104.09656524619248 23.54018116058458 C 0.0 **** -0.24
22322 H 61.53099313983916 103.86775230675232 22.478819968480565 H 0.0 **** 0.06
22323 H 62.180231135141206 104.84434689117083 23.81702819727829 H 0.0 **** 0.06
22324 H 61.597225305620334 103.18983641523937 24.122439003077346 H 0.0 **** 0.06
22325 H 60.43793868985272 104.48521395934677 23.740673534798447 H 0.0 **** 0.06
22326 C 3.539227743272363 91.61225415612765 114.68947649941998 C 0.0 **** -0.24
22327 H 3.7578697488324906 90.57604034192104 114.4313433208577 H 0.0 **** 0.06
22328 H 4.392367035814857 92.2390806584396 114.42741336423853 H 0.0 **** 0.06
22329 H 3.3483200474425416 91.68726693193142 115.75968882726454 H 0.0 **** 0.06
22330 H 2.6598468047251345 91.94602512474572 114.1382739424593 H 0.0 **** 0.06
22331 C 75.80422878388575 89.9976913281684 75.97828499901286 C 0.0 **** -0.24
22332 H 74.87357493303304 89.4425958741628 76.10012354400479 H 0.0 **** 0.06
22333 H 76.05983253414965 90.4888037779647 76.91707539079098 H 0.0 **** 0.06
22334 H 75.67923247423423 90.74792668802056 75.19700463986624 H 0.0 **** 0.06
22335 H 76.60268791277014 89.31027054394505 75.69788020604082 H 0.0 **** 0.06
22336 C 6.788878709812696 36.60761544478119 81.26149329635726 C 0.0 **** -0.24
22337 H 6.254948019265402 36.68040681861592 82.20868204829526 H 0.0 **** 0.06
22338 H 7.292941941462104 35.64265550401736 81.20180461552098 H 0.0 **** 0.06
22339 H 7.527126508828228 37.40749227209754 81.19894401856214 H 0.0 **** 0.06
22340 H 6.081390211341823 36.7002624536189 80.43682260645446 H 0.0 **** 0.06
22341 C 1.1380016763437908 96.92082205773235 42.28482381785378 C 0.0 **** -0.24
22342 H 1.128706982002484 97.10308498387502 41.20978195138129 H 0.0 **** 0.06
22343 H 0.6204749025754666 95.98516662752996 42.49739405097523 H 0.0 **** 0.06
22344 H 0.6331469964172385 97.7399923971953 42.796312629917495 H 0.0 **** 0.06
22345 H 2.1681279019068853 96.85450789767964 42.632443474638436 H 0.0 **** 0.06
22346 C 115.33606910540445 99.77590011306987 14.779438396397467 C 0.0 **** -0.24
22347 H 114.58522732169808 99.10656114856437 15.200381556349456 H 0.0 **** 0.06
22348 H 115.128472620239 100.79828172811725 15.094040715160617 H 0.0 **** 0.06
22349 H 115.3051793611474 99.71520064150488 13.691840817402152 H 0.0 **** 0.06
22350 H 116.32400010953543 99.47969801582337 15.13188806668569 H 0.0 **** 0.06
22351 C 89.2522217412631 106.30850294390132 92.17239721709143 C 0.0 **** -0.24
22352 H 89.41543694106167 107.26863267568751 92.66042154569774 H 0.0 **** 0.06
22353 H 90.12859587828643 105.67512297672886 92.31592565633628 H 0.0 **** 0.06
22354 H 89.08815652597167 106.46595850904976 91.10676621461946 H 0.0 **** 0.06
22355 H 88.37813359477494 105.8234231256082 92.60689187994586 H 0.0 **** 0.06
22356 C 10.245516217357732 120.32770461867601 115.2282590863836 C 0.0 **** -0.24
22357 H 10.69091754828574 120.7926554177727 114.34830818948247 H 0.0 **** 0.06
22358 H 10.288425211392592 121.02263641163073 116.06728756384288 H 0.0 **** 0.06
22359 H 10.795392291127115 119.42082908388402 115.47680709247159 H 0.0 **** 0.06
22360 H 9.205755101894567 120.07602606486196 115.01767443410363 H 0.0 **** 0.06
22361 C 59.78905065936642 74.31397552374901 14.822287196341424 C 0.0 **** -0.24
22362 H 60.44456212174395 73.59281168765213 15.30956896696712 H 0.0 **** 0.06
22363 H 59.72543924310043 75.21735326232306 15.430851499503987 H 0.0 **** 0.06
22364 H 58.79466474302259 73.8817604935187 14.708978036935044 H 0.0 **** 0.06
22365 H 60.190620135616406 74.5646823275635 13.84056413372145 H 0.0 **** 0.06
22366 C 113.19154202972496 6.205531838049211 34.265045959411 C 0.0 **** -0.24
22367 H 113.27658316260785 7.117137179878142 33.673627468260634 H 0.0 **** 0.06
22368 H 113.90227561678311 6.240365110080035 35.090833190118076 H 0.0 **** 0.06
22369 H 113.4060190052252 5.342367966262685 33.63601192973391 H 0.0 **** 0.06
22370 H 112.17916500455097 6.1239920925973195 34.66039914890757 H 0.0 **** 0.06
22371 C 51.38957038584752 28.358191570539418 60.031686752319466 C 0.0 **** -0.24
22372 H 52.44584930053108 28.105880171980516 59.94055542522181 H 0.0 **** 0.06
22373 H 51.04437390205956 28.11705338372559 61.03782987171537 H 0.0 **** 0.06
22374 H 50.81468074695758 27.786395442057568 59.30374775936645 H 0.0 **** 0.06
22375 H 51.253460556331305 29.423382077360714 59.84602469063001 H 0.0 **** 0.06
22376 C 58.7237202871329 24.26377973170736 41.11495529085104 C 0.0 **** -0.24
22377 H 58.94397080463512 24.017376160861595 40.07658922752945 H 0.0 **** 0.06
22378 H 58.97363799425896 25.308271864298085 41.301953873230445 H 0.0 **** 0.06
22379 H 59.31460188250538 23.624855352091103 41.77211871741875 H 0.0 **** 0.06
22380 H 57.662866492630634 24.102427115978365 41.30957480965682 H 0.0 **** 0.06
22381 C 52.48985393747134 44.52025374786973 54.74920054399743 C 0.0 **** -0.24
22382 H 53.460024726325365 44.65501770949564 54.27031070379428 H 0.0 **** 0.06
22383 H 52.636171017760994 44.17335768022022 55.772407557530585 H 0.0 **** 0.06
22384 H 51.91207109787196 43.780958182929396 54.1941679264786 H 0.0 **** 0.06
22385 H 51.95343565728137 45.46840590199372 54.75889485495108 H 0.0 **** 0.06
22386 C 116.1569633579904 86.38067657955244 61.623449395115465 C 0.0 **** -0.24
22387 H 116.27946218182223 85.29690730181312 61.613733099905865 H 0.0 **** 0.06
22388 H 115.20699870571472 86.63471583812586 62.09395375965338 H 0.0 **** 0.06
22389 H 116.16757181108417 86.75613087052167 60.60019103716622 H 0.0 **** 0.06
22390 H 116.9738281795464 86.83363735079575 62.185399160835324 H 0.0 **** 0.06
22391 C 90.85051115465544 71.79639698021114 11.186465672733505 C 0.0 **** -0.24
22392 H 90.78978926552423 72.8377963126342 10.872847551989253 H 0.0 **** 0.06
22393 H 91.18693196390197 71.74832437418084 12.222053517050455 H 0.0 **** 0.06
22394 H 91.55911507364397 71.26600735031465 10.549891649857443 H 0.0 **** 0.06
22395 H 89.86771100912688 71.33263854712206 11.101329751187109 H 0.0 **** 0.06
22396 C 53.109845525184475 9.329086270665925 8.446156646200592 C 0.0 **** -0.24
22397 H 53.65310870421617 9.441086919849312 7.508089976542067 H 0.0 **** 0.06
22398 H 53.11009055339614 10.278238589943754 8.98137426727206 H 0.0 **** 0.06
22399 H 53.59272024299113 8.566498327439689 9.056608711109618 H 0.0 **** 0.06
22400 H 52.082244240601575 9.029891393459195 8.236079901550255 H 0.0 **** 0.06
22401 C 110.78416538669094 90.0626768554364 36.80683066505982 C 0.0 **** -0.24
22402 H 111.19349899947588 89.56439264027551 35.92892299462679 H 0.0 **** 0.06
22403 H 111.59072972144077 90.29501334567402 37.502589880900416 H 0.0 **** 0.06
22404 H 110.06262569099692 89.40618298405226 37.293458254311105 H 0.0 **** 0.06
22405 H 110.28880950417735 90.98462053529857 36.50322154395181 H 0.0 **** 0.06
22406 C 19.392428435900598 56.983463687323784 75.91005464776114 C 0.0 **** -0.24
22407 H 18.49349695028663 56.404689374010495 75.6959106476624 H 0.0 **** 0.06
22408 H 20.268002431885282 56.34116054437197 75.8171570529189 H 0.0 **** 0.06
22409 H 19.337100208313352 57.37850927201621 76.92395693481384 H 0.0 **** 0.06
22410 H 19.469670384686253 57.80941067944024 75.2022408055127 H 0.0 **** 0.06
22411 C 28.964126408153263 116.312119339677 81.83114604413763 C 0.0 **** -0.24
22412 H 29.52408834579684 116.95781382018986 81.15508660609291 H 0.0 **** 0.06
22413 H 27.901791792460102 116.53994033679713 81.75440108347075 H 0.0 **** 0.06
22414 H 29.29943562105359 116.48024449800195 82.8547171498023 H 0.0 **** 0.06
22415 H 29.13316218688422 115.26977898196607 81.56116714865749 H 0.0 **** 0.06
22416 C 15.61124672536178 6.709290168921623 35.782500725160986 C 0.0 **** -0.24
22417 H 15.330991363052902 6.381893707051521 34.78193061302915 H 0.0 **** 0.06
22418 H 15.824285531349574 5.8399358938180335 36.40394476852056 H 0.0 **** 0.06
22419 H 14.791466436830945 7.278635531793427 36.221342727405094 H 0.0 **** 0.06
22420 H 16.499051536247606 7.339542051900441 35.722289737081525 H 0.0 **** 0.06
22421 C 12.754031070083556 117.55313450335987 35.93220671889935 C 0.0 **** -0.24
22422 H 13.025853915402251 118.01463804157957 36.882231996192615 H 0.0 **** 0.06
22423 H 12.914951071161397 116.47644401603333 35.99165846149873 H 0.0 **** 0.06
22424 H 13.373487599530279 117.96977170305681 35.137231091797275 H 0.0 **** 0.06
22425 H 11.704581823056458 117.75385260884086 35.718563083101174 H 0.0 **** 0.06
22426 C 80.37894930500528 84.70216965233521 71.91312752709024 C 0.0 **** -0.24
22427 H 81.3307453974466 85.00453556792573 71.47536934145819 H 0.0 **** 0.06
22428 H 80.22768912279759 83.63490978196938 71.75192937359557 H 0.0 **** 0.06
22429 H 79.5685613182822 85.2589515815761 71.44135068314986 H 0.0 **** 0.06
22430 H 80.38837317851079 84.91066497834771 72.98256848948219 H 0.0 **** 0.06
22431 C 105.63321184463763 57.78607965071194 6.09595893400828 C 0.0 **** -0.24
22432 H 106.46477403489757 57.14554594067047 6.390132405113121 H 0.0 **** 0.06
22433 H 105.95204167405146 58.82888725660843 6.119708734200884 H 0.0 **** 0.06
22434 H 104.80259258929811 57.64446900903192 6.7880407612721285 H 0.0 **** 0.06
22435 H 105.31431398692422 57.52687322666364 5.086289024013411 H 0.0 **** 0.06
22436 C 105.62582589569314 37.56248165880589 84.29097388089565 C 0.0 **** -0.24
22437 H 106.6931796870345 37.67674497450162 84.10545883905115 H 0.0 **** 0.06
22438 H 105.46211619421598 36.722993451125376 84.96665043864084 H 0.0 **** 0.06
22439 H 105.11120621025003 37.37601534244601 83.34794786545643 H 0.0 **** 0.06
22440 H 105.23540526469964 38.4745570252544 84.74288804317996 H 0.0 **** 0.06
22441 C 42.72548366831256 106.00346254806323 22.63630175178332 C 0.0 **** -0.24
22442 H 42.03256975599308 106.78442196018548 22.323407478488434 H 0.0 **** 0.06
22443 H 42.475503430007784 105.68120624241777 23.647945945898584 H 0.0 **** 0.06
22444 H 43.74359480214253 106.39239261725092 22.61900289820221 H 0.0 **** 0.06
22445 H 42.6486679385915 105.15550455981332 21.955432641030086 H 0.0 **** 0.06
22446 C 107.37818864294093 40.90425288661214 81.76062575396622 C 0.0 **** -0.24
22447 H 106.66909612597027 40.10328430810614 81.97198402718783 H 0.0 **** 0.06
22448 H 107.95129672972851 41.12760516309902 82.66071743425596 H 0.0 **** 0.06
22449 H 106.8354192880117 41.794962123594985 81.44519180545791 H 0.0 **** 0.06
22450 H 108.05449567138746 40.5894785747148 80.9666559838077 H 0.0 **** 0.06
22451 C 78.82847033382504 7.91156637568298 48.43945250212545 C 0.0 **** -0.24
22452 H 79.55724188947045 8.473983843380012 49.02467796419461 H 0.0 **** 0.06
22453 H 78.65293529576584 6.9453350586300076 48.910481715943405 H 0.0 **** 0.06
22454 H 79.21262436316493 7.76000087025696 47.43078917879123 H 0.0 **** 0.06
22455 H 77.89389622276826 8.469378916095593 48.39224595595783 H 0.0 **** 0.06
22456 C 44.85191902764643 81.04713709017483 47.002754048149 C 0.0 **** -0.24
22457 H 44.0102485658326 81.12631207481991 46.314620855842165 H 0.0 **** 0.06
22458 H 44.59214031749579 80.37170830638837 47.8178492002956 H 0.0 **** 0.06
22459 H 45.08585614404943 82.03242295762891 47.406040939851465 H 0.0 **** 0.06
22460 H 45.71974821570355 80.65724628420423 46.4696481881051 H 0.0 **** 0.06
22461 C 83.80676559797143 0.13942564709154226 69.47197740927487 C 0.0 **** -0.24
22462 H 83.56877137307094 1.1935694140064612 69.32314225547026 H 0.0 **** 0.06
22463 H 83.79883954955892 -0.08726272335130147 70.53793691521491 H 0.0 **** 0.06
22464 H 84.79505727764104 -0.07045414342239553 69.06266436288502 H 0.0 **** 0.06
22465 H 83.06479272292518 -0.4759403878349673 68.96318666357445 H 0.0 **** 0.06
22466 C 86.63597390768396 103.61447737355914 9.974913337104194 C 0.0 **** -0.24
22467 H 86.78761985128955 102.54464092056978 9.83153411664767 H 0.0 **** 0.06
22468 H 85.93714659532827 103.98522464418937 9.224147026134482 H 0.0 **** 0.06
22469 H 87.58812193207024 104.13375958876753 9.872711718446457 H 0.0 **** 0.06
22470 H 86.22869180224973 103.79370350468923 10.970711255247835 H 0.0 **** 0.06
22471 C 26.410835847885913 55.45742320540336 71.36563853322585 C 0.0 **** -0.24
22472 H 27.204720510681433 54.76521866590821 71.64578159387068 H 0.0 **** 0.06
22473 H 25.81519449494479 55.7022316661178 72.24555692374983 H 0.0 **** 0.06
22474 H 25.773868384310994 54.993172711206824 70.61277463068342 H 0.0 **** 0.06
22475 H 26.85014104378361 56.36782251871816 70.95811411360387 H 0.0 **** 0.06
22476 C 92.60888929606102 119.60167374734512 67.62741910435406 C 0.0 **** -0.24
22477 H 91.9396071187769 120.37667195057779 67.25373168567103 H 0.0 **** 0.06
22478 H 92.61573171397947 118.76130116898948 66.93308830799316 H 0.0 **** 0.06
22479 H 92.26324663449577 119.26301950518405 68.60425716600128 H 0.0 **** 0.06
22480 H 93.61686335411952 120.00624226630758 67.719434014798 H 0.0 **** 0.06
22481 C 111.4618300079746 54.5957682637438 32.54157710666213 C 0.0 **** -0.24
22482 H 111.04021503171273 55.23240308220269 33.32017849027176 H 0.0 **** 0.06
22483 H 111.20263298812623 53.556459825363156 32.743006979645465 H 0.0 **** 0.06
22484 H 112.5462481191358 54.70531770897569 32.531809509965456 H 0.0 **** 0.06
22485 H 111.05779895916135 54.89103636312377 31.57336856700161 H 0.0 **** 0.06
22486 C 17.205164102268505 27.888803361980592 115.51925435337176 C 0.0 **** -0.24
22487 H 17.25259380491717 28.881323768500692 115.07046840060683 H 0.0 **** 0.06
22488 H 16.71369736097705 27.952446542243592 116.49059063477736 H 0.0 **** 0.06
22489 H 18.21468867276543 27.498801899120963 115.6460143056189 H 0.0 **** 0.06
22490 H 16.63773315582761 27.223189875633466 114.86772537072011 H 0.0 **** 0.06
22491 C 75.77060531916737 55.67026859161146 48.47940627649996 C 0.0 **** -0.24
22492 H 76.28316057245684 54.84342974947026 47.98879062895809 H 0.0 **** 0.06
22493 H 74.7153956311407 55.42267446365031 48.60155732907602 H 0.0 **** 0.06
22494 H 75.86391582618657 56.56879565418225 47.86844272211424 H 0.0 **** 0.06
22495 H 76.21821997218308 55.847141865238825 49.45658180231362 H 0.0 **** 0.06
22496 C 84.11948748554312 67.36313178436248 13.837203887165856 C 0.0 **** -0.24
22497 H 84.3726321200798 67.00078477619797 14.833858592647118 H 0.0 **** 0.06
22498 H 84.97178929965528 67.22085052689329 13.172025830233139 H 0.0 **** 0.06
22499 H 83.8711931218707 68.42294498894663 13.888594311118908 H 0.0 **** 0.06
22500 H 83.26340612915135 66.80623563005622 13.45572448043086 H 0.0 **** 0.06
22501 C 28.737100275970874 99.33346907376239 43.29139059094828 C 0.0 **** -0.24
22502 H 28.50194092643052 98.3576599148758 43.71682768032193 H 0.0 **** 0.06
22503 H 29.356171353946095 99.20226049962614 42.40339988765709 H 0.0 **** 0.06
22504 H 29.278240785793187 99.92971882050955 44.02656428307341 H 0.0 **** 0.06
22505 H 27.81315127666531 99.84292603166492 43.018517065689934 H 0.0 **** 0.06
22506 C 107.35534025710038 49.41290178634554 20.081208915653665 C 0.0 **** -0.24
22507 H 106.80212853601384 49.90731087551032 19.283364623740525 H 0.0 **** 0.06
22508 H 108.00119299552682 48.64498478984271 19.653731504608878 H 0.0 **** 0.06
22509 H 106.65460762634049 48.95167912017371 20.77762157864992 H 0.0 **** 0.06
22510 H 107.96333171861241 50.145500987152445 20.61078690875989 H 0.0 **** 0.06
22511 C 55.55507619737537 10.089654656824962 16.712449231633883 C 0.0 **** -0.24
22512 H 54.545141835572224 9.699900661051942 16.845669430535622 H 0.0 **** 0.06
22513 H 55.50972954896625 11.036168345899455 16.172316159828625 H 0.0 **** 0.06
22514 H 56.14933622416632 9.373796758258663 16.145028233805675 H 0.0 **** 0.06
22515 H 56.012830600187925 10.249820313521269 17.68826323001059 H 0.0 **** 0.06
22516 C 48.13997812309043 3.3276827582979536 85.30921700431463 C 0.0 **** -0.24
22517 H 48.67666802534052 3.908973392083567 86.05965509776789 H 0.0 **** 0.06
22518 H 47.767103481616005 2.4082384558856234 85.76047391838239 H 0.0 **** 0.06
22519 H 48.81376412266519 3.0834832061439954 84.48863728746178 H 0.0 **** 0.06
22520 H 47.30198472673999 3.911711568082808 84.92952961741003 H 0.0 **** 0.06
22521 C 4.79808209367474 91.54543758121898 74.679532771672 C 0.0 **** -0.24
22522 H 5.737262140873977 91.06970227601667 74.3970599562756 H 0.0 **** 0.06
22523 H 4.997844178690766 92.34841783111676 75.39077470861221 H 0.0 **** 0.06
22524 H 4.141302864637611 90.80745879127215 75.14047148515638 H 0.0 **** 0.06
22525 H 4.317661099781654 91.95654118878554 73.79223937836738 H 0.0 **** 0.06
22526 C 118.02254753339469 115.9997176620109 110.94789466537719 C 0.0 **** -0.24
22527 H 117.85143859798373 115.5824174405911 109.95579116098418 H 0.0 **** 0.06
22528 H 117.63161029859884 117.01638747251377 110.98771551715112 H 0.0 **** 0.06
22529 H 119.0926110696947 116.01322733762338 111.15609570254247 H 0.0 **** 0.06
22530 H 117.51555847900957 115.3849785781198 111.69267192866067 H 0.0 **** 0.06
22531 C 8.148941174533405 12.897136789634004 59.154445643364255 C 0.0 **** -0.24
22532 H 8.883700214735171 13.702197655275143 59.131745264221394 H 0.0 **** 0.06
22533 H 7.532135223041493 12.993346921422301 60.048453028864515 H 0.0 **** 0.06
22534 H 8.6630096350721 11.936303189016144 59.16832059574725 H 0.0 **** 0.06
22535 H 7.517227366692225 12.957553246987175 58.268843822795816 H 0.0 **** 0.06
22536 C 38.11105601238191 10.102682316416605 95.00282142005591 C 0.0 **** -0.24
22537 H 37.78477582957041 9.633074040904546 94.07511165238054 H 0.0 **** 0.06
22538 H 38.130617639626706 11.185042088319335 94.87414036066221 H 0.0 **** 0.06
22539 H 39.1105860024804 9.749275365884046 95.255624588898 H 0.0 **** 0.06
22540 H 37.42021808154223 9.843369808937979 95.8041497072017 H 0.0 **** 0.06
22541 C 93.72348670753755 18.8154705976537 110.1618362791761 C 0.0 **** -0.24
22542 H 92.75960931822974 18.930739660195684 109.66522617163858 H 0.0 **** 0.06
22543 H 93.59789693547896 18.958274283026128 111.23474233315758 H 0.0 **** 0.06
22544 H 94.42173785846904 19.557438346825563 109.77450913319535 H 0.0 **** 0.06
22545 H 94.1135530823066 17.81567678013039 109.97096543629974 H 0.0 **** 0.06
22546 C 16.9799190727513 75.24221725247361 104.79276317422963 C 0.0 **** -0.24
22547 H 17.505292264500653 74.91250311578102 103.89651559670742 H 0.0 **** 0.06
22548 H 16.586642314966625 74.37510796172188 105.32317149459575 H 0.0 **** 0.06
22549 H 16.157640647622003 75.90041593897237 104.51043559148701 H 0.0 **** 0.06
22550 H 17.671040383042993 75.78228233116721 105.43990857915762 H 0.0 **** 0.06
22551 C 56.30622214856378 54.44430674028802 28.36536826297811 C 0.0 **** -0.24
22552 H 56.191467361411036 53.43524318710295 28.76011015751095 H 0.0 **** 0.06
22553 H 56.86661101838347 54.40678773342102 27.430717623097337 H 0.0 **** 0.06
22554 H 56.84304259586701 55.05861496574652 29.08777625217519 H 0.0 **** 0.06
22555 H 55.32229720375124 54.876134621251644 28.181244569172748 H 0.0 **** 0.06
22556 C 64.61389784691119 89.32768240103326 39.79629864137874 C 0.0 **** -0.24
22557 H 63.884437264212664 89.42562423981627 38.99249221732216 H 0.0 **** 0.06
22558 H 65.58996579838836 89.08682072138163 39.37390404830798 H 0.0 **** 0.06
22559 H 64.30326165906428 88.53122676743814 40.472800476757136 H 0.0 **** 0.06
22560 H 64.67662232266693 90.26695168146225 40.345461611718704 H 0.0 **** 0.06
22561 C 27.79542475487915 121.88234497534535 111.52144648628905 C 0.0 **** -0.24
22562 H 27.96831627469726 121.05890025165822 112.21395887350621 H 0.0 **** 0.06
22563 H 27.587522523612108 122.7928669174168 112.08452521324813 H 0.0 **** 0.06
22564 H 26.944162622285262 121.64737389576686 110.88278970649014 H 0.0 **** 0.06
22565 H 28.682280823282042 122.03074544658432 110.90569676447842 H 0.0 **** 0.06
22566 C 83.86110924047043 101.35586769504448 83.13621248600117 C 0.0 **** -0.24
22567 H 83.68847865569867 102.42762839559666 83.23852014772405 H 0.0 **** 0.06
22568 H 84.91038376975942 101.17821740807216 82.89582407019248 H 0.0 **** 0.06
22569 H 83.23282100413263 100.96120547605591 82.33764704713354 H 0.0 **** 0.06
22570 H 83.6139689133683 100.85757765252711 84.0732849413148 H 0.0 **** 0.06
22571 C 53.84875726864584 80.74529506409294 90.87267453694079 C 0.0 **** -0.24
22572 H 53.39574315130096 81.35606247198064 90.09176576463676 H 0.0 **** 0.06
22573 H 54.480873271732605 79.98300423372336 90.41743595505551 H 0.0 **** 0.06
22574 H 53.064490700414694 80.26612168943495 91.45972310661074 H 0.0 **** 0.06
22575 H 54.453237563459254 81.37777279369641 91.5229395853159 H 0.0 **** 0.06
22576 C 4.3484876620384085 39.45261550210273 95.4695494015435 C 0.0 **** -0.24
22577 H 5.142919703226511 39.02853737709478 94.85599535618482 H 0.0 **** 0.06
22578 H 3.420470301003789 39.47841751680119 94.89741285743693 H 0.0 **** 0.06
22579 H 4.620569758772078 40.46582067587741 95.76692927684428 H 0.0 **** 0.06
22580 H 4.209154028333927 38.837925662378154 96.35935765023393 H 0.0 **** 0.06
22581 C 80.1470086386999 0.04987498596112516 77.05274392908419 C 0.0 **** -0.24
22582 H 81.09650862928379 -0.4782489213297936 77.13884865090904 H 0.0 **** 0.06
22583 H 79.90492546279023 0.5189880280129842 78.00664950456436 H 0.0 **** 0.06
22584 H 79.36118463379097 -0.6580484482276177 76.78618011981206 H 0.0 **** 0.06
22585 H 80.2239737490192 0.8151170620171513 76.28032560424504 H 0.0 **** 0.06
22586 C 110.08876732248254 40.29691346900373 60.234563702739955 C 0.0 **** -0.24
22587 H 111.07983787620395 39.84341164218003 60.22354669889416 H 0.0 **** 0.06
22588 H 109.52309139710624 39.913742660899544 61.083611396036865 H 0.0 **** 0.06
22589 H 109.56707598014651 40.051264463895365 59.30938974168922 H 0.0 **** 0.06
22590 H 110.18590149990922 41.379134651681255 60.32057177627872 H 0.0 **** 0.06
22591 C 119.02379568383186 55.644343305107355 18.656028571285532 C 0.0 **** -0.24
22592 H 119.76874591740774 55.383749909863724 19.406311339266423 H 0.0 **** 0.06
22593 H 118.80862213319979 54.77179196870287 18.03783949646018 H 0.0 **** 0.06
22594 H 119.40628328271472 56.44969359360147 18.027946292141536 H 0.0 **** 0.06
22595 H 118.10965672849258 55.972820404806214 19.151007277293445 H 0.0 **** 0.06
22596 C 12.796292559843959 41.755889911287646 71.4039790582967 C 0.0 **** -0.24
22597 H 13.279222523158438 42.507961977906724 72.02795693506877 H 0.0 **** 0.06
22598 H 11.781004896380239 42.07594451419324 71.16865764083889 H 0.0 **** 0.06
22599 H 12.763921463768142 40.80695202909913 71.93802780244096 H 0.0 **** 0.06
22600 H 13.361996636876441 41.63357275432359 70.48013840125964 H 0.0 **** 0.06
22601 C 28.932288715882237 45.46551411956156 48.96748860975353 C 0.0 **** -0.24
22602 H 29.523067748399455 44.55085093622361 49.00408726774437 H 0.0 **** 0.06
22603 H 28.122203098689397 45.34491173876995 48.24697241336867 H 0.0 **** 0.06
22604 H 29.56751473657846 46.2975205087524 48.66475380711809 H 0.0 **** 0.06
22605 H 28.51400207866982 45.6667720854459 49.95351478989059 H 0.0 **** 0.06
22606 C 45.08461409285971 38.54244576610199 102.93317389190838 C 0.0 **** -0.24
22607 H 44.92147919606747 39.60048122375565 102.72733142115362 H 0.0 **** 0.06
22608 H 45.73071700799415 38.11824004417005 102.16384969364128 H 0.0 **** 0.06
22609 H 44.12767290848828 38.02070141774658 102.93129622192612 H 0.0 **** 0.06
22610 H 45.55802027098042 38.430392228014625 103.9085818699125 H 0.0 **** 0.06
22611 C 64.62814969959493 73.70187242017016 89.77840285137714 C 0.0 **** -0.24
22612 H 63.95912902694113 73.82515562772997 88.92672232330077 H 0.0 **** 0.06
22613 H 65.62466915029853 73.4398056054132 89.42252349885621 H 0.0 **** 0.06
22614 H 64.25170158832776 72.90824605139667 90.42339208046187 H 0.0 **** 0.06
22615 H 64.67660754680594 74.63514817211271 90.34087900879021 H 0.0 **** 0.06
22616 C 55.50607171050649 118.53270521278822 64.73558655991133 C 0.0 **** -0.24
22617 H 56.166635795886236 118.03986283020427 64.02231830889684 H 0.0 **** 0.06
22618 H 55.546340190379055 119.61153938843708 64.58385514015356 H 0.0 **** 0.06
22619 H 55.82488547673668 118.29542764721415 65.74984648148478 H 0.0 **** 0.06
22620 H 54.48357393287378 118.18261210410793 64.58534215779844 H 0.0 **** 0.06
22621 C 7.815900417023755 22.77724359818967 28.431742521774083 C 0.0 **** -0.24
22622 H 8.12676215710772 22.994501785319187 29.45333488350559 H 0.0 **** 0.06
22623 H 7.564142085894758 21.719614282981468 28.346015217378806 H 0.0 **** 0.06
22624 H 8.629160928224962 23.01463199545168 27.74626736383496 H 0.0 **** 0.06
22625 H 6.943181259358511 23.380501337849182 28.182246060741335 H 0.0 **** 0.06
22626 C 89.2990086853469 51.0902426500015 16.57649629670111 C 0.0 **** -0.24
22627 H 88.52697744684838 50.38928727567276 16.25789230687059 H 0.0 **** 0.06
22628 H 88.86016090251707 52.07970899399699 16.704242522668448 H 0.0 **** 0.06
22629 H 90.0828978941835 51.134223223121765 15.820158034604503 H 0.0 **** 0.06
22630 H 89.72525872176936 50.755622640932714 17.522731751669014 H 0.0 **** 0.06
22631 C 122.27721120529601 89.07895496354976 92.61431592155498 C 0.0 **** -0.24
22632 H 122.7750896862957 88.62563223760174 93.47184824703731 H 0.0 **** 0.06
22633 H 122.20294785461171 90.1558995131974 92.76524146905766 H 0.0 **** 0.06
22634 H 121.27797581104825 88.6566803735893 92.5090500028775 H 0.0 **** 0.06
22635 H 122.85411874547188 88.87773716537757 91.71169517441837 H 0.0 **** 0.06
22636 C 12.207386849378846 81.11066430189678 95.36201757269168 C 0.0 **** -0.24
22637 H 13.164702817077014 80.97844508969342 95.86574301700648 H 0.0 **** 0.06
22638 H 11.418188418068357 81.22397815787488 96.10607469520949 H 0.0 **** 0.06
22639 H 11.999031894083775 80.23878370635933 94.7423349599323 H 0.0 **** 0.06
22640 H 12.246766342469357 82.00119578385454 94.73501275319313 H 0.0 **** 0.06
22641 C 95.43132293117776 64.04395464685342 22.15117268383399 C 0.0 **** -0.24
22642 H 96.28494247377631 64.57816327413065 21.733055486480843 H 0.0 **** 0.06
22643 H 94.87230117316574 64.71090069488037 22.806578439163815 H 0.0 **** 0.06
22644 H 95.7854331232312 63.184312345837874 22.721369398377313 H 0.0 **** 0.06
22645 H 94.78520826938689 63.70263706503659 21.342191659012528 H 0.0 **** 0.06
22646 C 71.8486073329062 55.23635026000767 52.698624004889666 C 0.0 **** -0.24
22647 H 72.4690871689329 56.1313204696971 52.65083034160256 H 0.0 **** 0.06
22648 H 72.22716408771615 54.494503438590584 51.99468205712242 H 0.0 **** 0.06
22649 H 70.82212311770789 55.492836183785954 52.439583139469846 H 0.0 **** 0.06
22650 H 71.87672941890679 54.82798367094702 53.709371285586144 H 0.0 **** 0.06
22651 C 93.79649428670021 27.568295396151022 7.169483882705549 C 0.0 **** -0.24
22652 H 93.28561221572176 28.18733565592266 6.431965884432856 H 0.0 **** 0.06
22653 H 93.07978560970798 27.232516499280763 7.920204496177604 H 0.0 **** 0.06
22654 H 94.58094332590431 28.152502979027133 7.651351474497687 H 0.0 **** 0.06
22655 H 94.23852099708157 26.703969357972163 6.6757846731763095 H 0.0 **** 0.06
22656 C 70.22012027380367 43.688424947335704 19.083296740129555 C 0.0 **** -0.24
22657 H 71.20564568101986 44.13337882907001 18.947326804594468 H 0.0 **** 0.06
22658 H 70.11189338613883 43.354993258690826 20.115377346319235 H 0.0 **** 0.06
22659 H 70.11111134557075 42.83527545928587 18.412757252635032 H 0.0 **** 0.06
22660 H 69.45335115390867 44.428200762776385 18.857215141243614 H 0.0 **** 0.06
22661 C 0.7130136798820104 50.25563714561263 35.45450219502786 C 0.0 **** -0.24
22662 H 0.12020435069649693 49.3421169916671 35.482610564113656 H 0.0 **** 0.06
22663 H 1.1441550906790496 50.43974817362888 36.439395304225144 H 0.0 **** 0.06
22664 H 0.07527757680381342 51.09433205258985 35.17471895526083 H 0.0 **** 0.06
22665 H 1.513573231182761 50.147407754747185 34.72316786854822 H 0.0 **** 0.06
22666 C 59.080713551491584 50.91387003105959 65.42083699477877 C 0.0 **** -0.24
22667 H 58.70674962022045 51.501296529470906 66.25964998929959 H 0.0 **** 0.06
22668 H 59.39246982077768 49.931333380506636 65.7767919824118 H 0.0 **** 0.06
22669 H 59.93047149142859 51.424841690544646 64.96892273616851 H 0.0 **** 0.06
22670 H 58.28986988629492 50.79819377023189 64.6790415491455 H 0.0 **** 0.06
22671 C 85.94682041027602 62.754243596583706 105.00496497760679 C 0.0 **** -0.24
22672 H 85.8142578756725 61.76809933395458 105.44959828419337 H 0.0 **** 0.06
22673 H 85.34645444111797 62.82774731843767 104.09737029011237 H 0.0 **** 0.06
22674 H 86.9988925823057 62.902952368771764 104.75808428533927 H 0.0 **** 0.06
22675 H 85.62840501733325 63.51835637972522 105.71360831807334 H 0.0 **** 0.06
22676 C 90.24994434917363 12.588392117701304 73.3883368597312 C 0.0 **** -0.24
22677 H 89.78416969376491 13.045803360867552 74.26183849904814 H 0.0 **** 0.06
22678 H 91.29908564189742 12.881576440818606 73.34082186451494 H 0.0 **** 0.06
22679 H 89.73799787672084 12.924861798808834 72.48682086528305 H 0.0 **** 0.06
22680 H 90.17840074743455 11.50375019042599 73.46420179453915 H 0.0 **** 0.06
22681 C 13.761403151218587 64.4342484818755 120.13608176008768 C 0.0 **** -0.24
22682 H 12.830207700172423 64.56260186729958 119.58544985331736 H 0.0 **** 0.06
22683 H 13.928747678690456 65.30169531412199 120.7744507167501 H 0.0 **** 0.06
22684 H 14.588954720627953 64.33405545390946 119.43314155176142 H 0.0 **** 0.06
22685 H 13.698237866440422 63.536254549476126 120.75141599797689 H 0.0 **** 0.06
22686 C 2.467000879087337 107.26541162022272 86.7813514619817 C 0.0 **** -0.24
22687 H 2.379887987754188 106.81676634933135 87.77061576513847 H 0.0 **** 0.06
22688 H 2.8755952916800425 106.53301589075477 86.08534125170979 H 0.0 **** 0.06
22689 H 3.1303734700684913 108.12821845274343 86.83152360509536 H 0.0 **** 0.06
22690 H 1.4820642194474232 107.5836038312963 86.4389209574826 H 0.0 **** 0.06
22691 C 108.41305081413097 77.07644479191455 10.292650319491827 C 0.0 **** -0.24
22692 H 109.34860757611554 77.28412199532511 10.812819428358182 H 0.0 **** 0.06
22693 H 107.8476545331664 76.3281752001783 10.848259717070107 H 0.0 **** 0.06
22694 H 108.62916123608701 76.70064470136793 9.29315712764145 H 0.0 **** 0.06
22695 H 107.82860439184049 77.99318894736982 10.218720444298413 H 0.0 **** 0.06
22696 C 75.83857032524804 8.060429095735227 46.05972549513359 C 0.0 **** -0.24
22697 H 75.20035897296242 8.701434370024817 46.66898218095872 H 0.0 **** 0.06
22698 H 75.21839465517331 7.444997080138361 45.40716303581229 H 0.0 **** 0.06
22699 H 76.43238206856961 7.416989530015595 46.70936716481009 H 0.0 **** 0.06
22700 H 76.50229686257265 8.67790239141819 45.45445039625292 H 0.0 **** 0.06
22701 C 108.19200321806773 31.3347711456626 58.08359937663161 C 0.0 **** -0.24
22702 H 107.13051317402667 31.31161290829506 58.33052997621408 H 0.0 **** 0.06
22703 H 108.45297571016664 32.31976849211347 57.69584462536585 H 0.0 **** 0.06
22704 H 108.40540447448166 30.578140289572644 57.328363123706396 H 0.0 **** 0.06
22705 H 108.77696538539297 31.129981135121767 58.98008999426779 H 0.0 **** 0.06
22706 C 109.53772075411135 62.94338346197324 10.36277069728493 C 0.0 **** -0.24
22707 H 109.1351881182429 63.60804322935593 9.59893697703194 H 0.0 **** 0.06
22708 H 110.57710886533349 62.7115762739225 10.130596401966017 H 0.0 **** 0.06
22709 H 108.95496814318523 62.02230161022314 10.38684915445927 H 0.0 **** 0.06
22710 H 109.48280125968805 63.4334170848351 11.335738385366255 H 0.0 **** 0.06
22711 C 11.216912479015576 57.49558068210848 5.90594195949231 C 0.0 **** -0.24
22712 H 10.354008005460372 57.348751285557114 5.256221144102184 H 0.0 **** 0.06
22713 H 12.081958479369717 57.77539792918924 5.304202906869378 H 0.0 **** 0.06
22714 H 11.429311739437054 56.569610548721556 6.441218568730477 H 0.0 **** 0.06
22715 H 11.00101737877148 58.28818871497356 6.622286104879464 H 0.0 **** 0.06
22716 C 18.491228897054526 79.27594413508763 33.196557779654405 C 0.0 **** -0.24
22717 H 19.097011319986592 79.57018183740553 34.053103698187314 H 0.0 **** 0.06
22718 H 18.444227333727923 80.10045561515045 32.48523732023103 H 0.0 **** 0.06
22719 H 17.48467101792764 79.02643610382688 33.53178171962534 H 0.0 **** 0.06
22720 H 18.940066775531733 78.4057730154887 32.716009142331345 H 0.0 **** 0.06
22721 C 98.51914401600334 77.89945611514764 64.38575352349056 C 0.0 **** -0.24
22722 H 98.5886236699094 77.31843553870866 63.466030843719835 H 0.0 **** 0.06
22723 H 97.6400553523888 78.54259268393946 64.34406890205577 H 0.0 **** 0.06
22724 H 99.41356051285965 78.51265367182731 64.49688420825692 H 0.0 **** 0.06
22725 H 98.43447738927608 77.2227478109969 65.23584325004967 H 0.0 **** 0.06
22726 C 2.541898459317906 16.3486385989754 10.572146190153092 C 0.0 **** -0.24
22727 H 1.9143226424332482 15.50152661143618 10.296135361433073 H 0.0 **** 0.06
22728 H 2.0156562157500844 17.27758939236499 10.352374358494842 H 0.0 **** 0.06
22729 H 3.47156618222769 16.312985921405676 10.00445796133802 H 0.0 **** 0.06
22730 H 2.765460302206691 16.301827959161542 11.638973316426615 H 0.0 **** 0.06
22731 C 4.169934948792687 19.515621348637215 45.939638545534386 C 0.0 **** -0.24
22732 H 4.951883131963029 18.99442565270141 45.38873008652771 H 0.0 **** 0.06
22733 H 4.4428241357847345 19.569852423867626 46.993745103782814 H 0.0 **** 0.06
22734 H 3.2293694108179167 18.973072107884235 45.8357298603132 H 0.0 **** 0.06
22735 H 4.054002049773109 20.523627485313234 45.54133297953922 H 0.0 **** 0.06
22736 C 14.514558228020945 53.80474138844969 28.007549970448736 C 0.0 **** -0.24
22737 H 15.471308377538918 53.7311607767999 27.49006451125757 H 0.0 **** 0.06
22738 H 14.054591145152386 54.76772101785304 27.7862410627867 H 0.0 **** 0.06
22739 H 14.674474724288444 53.71654362233169 29.081307344096388 H 0.0 **** 0.06
22740 H 13.857124756228245 53.002061040304135 27.671079008220772 H 0.0 **** 0.06
22741 C 49.63716799674313 55.607331762701904 74.86455022046019 C 0.0 **** -0.24
22742 H 49.97450001359607 56.54370560714591 75.30757414053843 H 0.0 **** 0.06
22743 H 48.61804943204267 55.39735010959646 75.18958590920755 H 0.0 **** 0.06
22744 H 50.29426433428149 54.798066309271746 75.18259258152312 H 0.0 **** 0.06
22745 H 49.6620077950455 55.68948777337329 73.77723858733015 H 0.0 **** 0.06
22746 C 117.23286890651177 46.8625950453432 38.45340701568861 C 0.0 **** -0.24
22747 H 116.67830600601609 47.76131329499282 38.724942785591765 H 0.0 **** 0.06
22748 H 118.26236330572145 46.951452932580615 38.801409500115966 H 0.0 **** 0.06
22749 H 117.22412311164477 46.74353274761488 37.369510404338484 H 0.0 **** 0.06
22750 H 116.76578051701789 45.9937006362885 38.917564422864274 H 0.0 **** 0.06
22751 C 20.33183014377579 116.343736891935 44.09286890905345 C 0.0 **** -0.24
22752 H 20.947660367884055 116.91358468568409 44.78874803847343 H 0.0 **** 0.06
22753 H 20.151975671744594 115.34801543024317 44.49702013763422 H 0.0 **** 0.06
22754 H 20.849057862192055 116.25975297073134 43.13703141083127 H 0.0 **** 0.06
22755 H 19.380543091829963 116.85587032981144 43.94721028503821 H 0.0 **** 0.06
22756 C 32.6945538704762 13.568196923239867 1.644956791371385 C 0.0 **** -0.24
22757 H 32.30141502666689 13.150055596696461 0.7181197896715332 H 0.0 **** 0.06
22758 H 33.10064426679503 14.56124054682941 1.4508379732223062 H 0.0 **** 0.06
22759 H 33.483319823905475 12.920885570910912 2.028500038290545 H 0.0 **** 0.06
22760 H 31.892853850267983 13.639983649199593 2.3800002432746368 H 0.0 **** 0.06
22761 C 13.714562662674716 12.117853205686345 42.51088297312768 C 0.0 **** -0.24
22762 H 12.970777263923083 11.47557807816463 42.981888324709814 H 0.0 **** 0.06
22763 H 14.003701188501395 12.90712448367691 43.20528770214659 H 0.0 **** 0.06
22764 H 13.292270542352679 12.562804471162679 41.61013392870879 H 0.0 **** 0.06
22765 H 14.590692376935475 11.525362321631121 42.246445018989505 H 0.0 **** 0.06
22766 C 91.87561101409071 41.65695572772816 9.419541539180237 C 0.0 **** -0.24
22767 H 91.73580314595486 41.48984301720628 10.487151573063382 H 0.0 **** 0.06
22768 H 92.51909922922763 42.52387046850694 9.268578314065305 H 0.0 **** 0.06
22769 H 90.90822173685362 41.835506604569844 8.950280748058287 H 0.0 **** 0.06
22770 H 92.33942296509599 40.77719982190288 8.972010288552767 H 0.0 **** 0.06
22771 C 47.55792292778475 112.66214671741162 32.692080989268845 C 0.0 **** -0.24
22772 H 48.20355443320715 113.34104714004555 33.24785902301963 H 0.0 **** 0.06
22773 H 46.90653334277818 112.12955210044986 33.38609957440707 H 0.0 **** 0.06
22774 H 48.16985513092608 111.9445845068337 32.145836939775364 H 0.0 **** 0.06
22775 H 46.95132090058542 113.23255074440289 31.98822774392346 H 0.0 **** 0.06
22776 C 94.37332853846505 49.19091192761249 18.576153323158934 C 0.0 **** -0.24
22777 H 94.28109951926999 49.32234535488662 19.654608808000816 H 0.0 **** 0.06
22778 H 93.8015807275757 49.96610123341429 18.066202250241105 H 0.0 **** 0.06
22779 H 93.9887842206634 48.21017592644708 18.29549389574133 H 0.0 **** 0.06
22780 H 95.422753098199 49.2647712252633 18.290074568733417 H 0.0 **** 0.06
22781 C 86.19117817979455 53.73919704555615 25.377944380789124 C 0.0 **** -0.24
22782 H 86.40679264982236 52.67692587997905 25.49053421816761 H 0.0 **** 0.06
22783 H 85.13979194806433 53.87052988554029 25.11944122228632 H 0.0 **** 0.06
22784 H 86.81510059186971 54.15509213808164 24.58814496983019 H 0.0 **** 0.06
22785 H 86.40148728376897 54.252789905241855 26.315784214502692 H 0.0 **** 0.06
22786 C 68.18839514090806 3.4099942752624486 44.266533294701276 C 0.0 **** -0.24
22787 H 68.52027593384514 4.256442951553879 43.664881456188255 H 0.0 **** 0.06
22788 H 68.43072864299054 2.4812039298807065 43.74963376596975 H 0.0 **** 0.06
22789 H 67.11168388008605 3.472000172602435 44.418029655543705 H 0.0 **** 0.06
22790 H 68.69392662059764 3.430755767332755 45.2323190099757 H 0.0 **** 0.06
22791 C 92.34942376408085 8.748291746665402 71.72901333521031 C 0.0 **** -0.24
22792 H 93.08884278768969 9.514374238110307 71.96422239096799 H 0.0 **** 0.06
22793 H 92.15392127015198 8.147124934894563 72.61732769571282 H 0.0 **** 0.06
22794 H 92.73162957416872 8.108483673979123 70.93255393791898 H 0.0 **** 0.06
22795 H 91.42588255512635 9.223698780799722 71.40050938249195 H 0.0 **** 0.06
22796 C 87.07077729729693 71.35802265343443 14.801994248401229 C 0.0 **** -0.24
22797 H 86.03458431898392 71.0304008816857 14.878500115715326 H 0.0 **** 0.06
22798 H 87.733080951805 70.52921233639108 15.052328953092712 H 0.0 **** 0.06
22799 H 87.24267975819646 72.18252340821732 15.493516589295155 H 0.0 **** 0.06
22800 H 87.27276416020231 71.68995398744352 13.783631335501681 H 0.0 **** 0.06
22801 C 62.60496991862892 87.58272037337227 15.879574160865285 C 0.0 **** -0.24
22802 H 61.86501898415394 87.43322821422635 15.09314307566077 H 0.0 **** 0.06
22803 H 63.55507740141797 87.14738109799222 15.57050686106864 H 0.0 **** 0.06
22804 H 62.263209251029416 87.09882836041643 16.79485353220572 H 0.0 **** 0.06
22805 H 62.73408899451248 88.64982721669821 16.0586923989272 H 0.0 **** 0.06
22806 C 2.5026226719345033 95.75442266537141 106.93178114210565 C 0.0 **** -0.24
22807 H 2.069071555400228 96.7547788582213 106.96149859740837 H 0.0 **** 0.06
22808 H 3.318116965577218 95.73369244141375 106.20904230420336 H 0.0 **** 0.06
22809 H 1.7373754802005976 95.03632890929228 106.63686211974056 H 0.0 **** 0.06
22810 H 2.8847036716248766 95.4945551866202 107.91886529168505 H 0.0 **** 0.06
22811 C 35.12172349013322 23.063604089001245 41.02306853573131 C 0.0 **** -0.24
22812 H 34.36795078931705 22.282467978138584 41.119449005621206 H 0.0 **** 0.06
22813 H 34.65375693362209 24.038025274056963 41.160027425966575 H 0.0 **** 0.06
22814 H 35.57173964088622 23.01181137304863 40.03090464284716 H 0.0 **** 0.06
22815 H 35.892406936199535 22.920242409405375 41.77978944194078 H 0.0 **** 0.06
22816 C 18.120592356122188 90.83097857911932 118.67216874955658 C 0.0 **** -0.24
22817 H 17.381715120296064 90.14768191770858 118.25367116908433 H 0.0 **** 0.06
22818 H 17.96315149891865 91.82998974573516 118.26496091085875 H 0.0 **** 0.06
22819 H 19.121681258072215 90.48714113065009 118.41166355257543 H 0.0 **** 0.06
22820 H 18.01671881821261 90.85877228064123 119.7563577863944 H 0.0 **** 0.06
22821 C 27.57699276657415 76.57419590159293 90.10437360018486 C 0.0 **** -0.24
22822 H 28.4117041801436 76.4882855550018 90.79918820142933 H 0.0 **** 0.06
22823 H 27.094330571422745 75.60345771217789 89.994220685442 H 0.0 **** 0.06
22824 H 27.94448126178601 76.91078927584897 89.1354230412625 H 0.0 **** 0.06
22825 H 26.857554507491656 77.29699271006658 90.48987654962082 H 0.0 **** 0.06
22826 C 80.35908971891678 39.71762178321864 22.889915684374756 C 0.0 **** -0.24
22827 H 80.07483573546205 40.44730711970284 22.130803578631372 H 0.0 **** 0.06
22828 H 80.89888791128982 38.89575924802789 22.419988041081922 H 0.0 **** 0.06
22829 H 79.46246266087843 39.333615179341095 23.376984474030024 H 0.0 **** 0.06
22830 H 80.99848058211705 40.19709109327384 23.631300637286557 H 0.0 **** 0.06
22831 C 113.30441954285004 60.33485377215228 74.65881323059102 C 0.0 **** -0.24
22832 H 112.22800781342488 60.50668427038021 74.66575622686915 H 0.0 **** 0.06
22833 H 113.51234713719117 59.31563151334557 74.98519836826827 H 0.0 **** 0.06
22834 H 113.78824476302731 61.040108580036055 75.33487237374169 H 0.0 **** 0.06
22835 H 113.68812939110501 60.478890033556574 73.64872440004416 H 0.0 **** 0.06
22836 C 70.1928701266487 118.77438282788624 85.27369188909356 C 0.0 **** -0.24
22837 H 69.74132227720395 119.06569708066851 86.22202130132999 H 0.0 **** 0.06
22838 H 69.42208171003051 118.37741959272223 84.6117986724887 H 0.0 **** 0.06
22839 H 70.94809692734191 118.00891701538808 85.45245907701425 H 0.0 **** 0.06
22840 H 70.65771033939791 119.64439414732027 84.81011126105219 H 0.0 **** 0.06
22841 C 72.06707246760408 122.46349785681879 112.91626049440211 C 0.0 **** -0.24
22842 H 70.98253650639359 122.37504601971081 112.98521837388247 H 0.0 **** 0.06
22843 H 72.33830343236116 123.51232740540357 112.7938615642806 H 0.0 **** 0.06
22844 H 72.42423678746385 121.89371360189551 112.0585200491092 H 0.0 **** 0.06
22845 H 72.52197758661129 122.07395241820137 113.82682943597676 H 0.0 **** 0.06
22846 C 97.8945666865576 93.99065287591202 51.4621560530168 C 0.0 **** -0.24
22847 H 98.20852080863386 93.61350868849692 50.488419821595414 H 0.0 **** 0.06
22848 H 98.72425301710047 94.52019908728508 51.931109746052485 H 0.0 **** 0.06
22849 H 97.59083632404608 93.15650022448895 52.094163423531725 H 0.0 **** 0.06
22850 H 97.05409353808301 94.67306931672564 51.33264211804223 H 0.0 **** 0.06
22851 C 45.77546272311759 88.18980597352018 117.8289064015631 C 0.0 **** -0.24
22852 H 46.82733245637945 88.14936894921414 117.5448675378546 H 0.0 **** 0.06
22853 H 45.24003007427115 87.36664229656762 117.3553405734126 H 0.0 **** 0.06
22854 H 45.34716022985147 89.13755910568503 117.50338516064488 H 0.0 **** 0.06
22855 H 45.68935884126758 88.1047306880624 118.91187473506668 H 0.0 **** 0.06
22856 C 52.20740648049767 78.11751496677908 12.046738849435762 C 0.0 **** -0.24
22857 H 52.067874629685036 77.34717534545229 12.805740765227526 H 0.0 **** 0.06
22858 H 53.00597796223224 78.79122904466016 12.356488794252833 H 0.0 **** 0.06
22859 H 51.281672268246496 78.68072924253607 11.928109231973249 H 0.0 **** 0.06
22860 H 52.47171402086954 77.64891303675694 11.098419324808631 H 0.0 **** 0.06
22861 C 109.23544405504583 92.13569908896758 84.57578541717461 C 0.0 **** -0.24
22862 H 108.48481471834359 92.59674835963187 83.93380465369518 H 0.0 **** 0.06
22863 H 110.13690009390314 92.7496947437993 84.5788772810005 H 0.0 **** 0.06
22864 H 109.47392022362433 91.14035685279782 84.19993156224345 H 0.0 **** 0.06
22865 H 108.84575542817589 92.05691581375845 85.59060514933194 H 0.0 **** 0.06
22866 C 100.9049379119086 28.240162443084273 18.567649310134186 C 0.0 **** -0.24
22867 H 101.3098650783731 29.219582943249918 18.31037965380034 H 0.0 **** 0.06
22868 H 100.7147509764998 27.67462813470138 17.65519929478154 H 0.0 **** 0.06
22869 H 99.97292039303073 28.366857499249875 19.11923600675391 H 0.0 **** 0.06
22870 H 101.62280072093884 27.701893369380315 19.18634027189904 H 0.0 **** 0.06
22871 C 59.8274197692117 48.63835972581094 15.888963536466406 C 0.0 **** -0.24
22872 H 60.55806489400294 48.46091821879821 16.678163983639422 H 0.0 **** 0.06
22873 H 60.024734718317376 47.96667435581935 15.05329989489286 H 0.0 **** 0.06
22874 H 59.90301204065054 49.67236548038218 15.550859857086493 H 0.0 **** 0.06
22875 H 58.82482323564858 48.454864213696425 16.27394621172374 H 0.0 **** 0.06
22876 C 39.91387335278105 2.040879783975015 88.90191025565807 C 0.0 **** -0.24
22877 H 39.06081750827673 1.707886668660592 89.49321427854537 H 0.0 **** 0.06
22878 H 40.59377957797744 2.610211394096723 89.53623289381267 H 0.0 **** 0.06
22879 H 39.565663366603445 2.6714044305326183 88.08444371390863 H 0.0 **** 0.06
22880 H 40.43502008854624 1.1735062240677507 88.49669880731304 H 0.0 **** 0.06
22881 C 42.87146245919416 121.76944720872183 26.7304710532202 C 0.0 **** -0.24
22882 H 41.8324408869733 122.09665276998481 26.762514733064485 H 0.0 **** 0.06
22883 H 43.49754236627942 122.58133700415141 26.361181185354248 H 0.0 **** 0.06
22884 H 42.96061917375425 120.90960664908863 26.066232810724223 H 0.0 **** 0.06
22885 H 43.19518737601808 121.48838513114737 27.733607896236016 H 0.0 **** 0.06
22886 C 63.946460222770696 83.22952475007082 41.70215392636598 C 0.0 **** -0.24
22887 H 64.80560619622926 83.46544960739291 42.329506096966696 H 0.0 **** 0.06
22888 H 63.45684235813235 82.33209074287825 42.07926615810538 H 0.0 **** 0.06
22889 H 64.28033074002755 83.05995054565577 40.67814892858874 H 0.0 **** 0.06
22890 H 63.24311745653557 84.06284233012823 41.721621083451396 H 0.0 **** 0.06
22891 C 53.4828026679352 37.84257461774781 83.05800500661067 C 0.0 **** -0.24
22892 H 52.895223018417795 36.927020126635796 83.13128734127812 H 0.0 **** 0.06
22893 H 52.8801340749377 38.68791007634766 83.390689060321 H 0.0 **** 0.06
22894 H 53.78678130504392 37.996735159937025 82.02277622443876 H 0.0 **** 0.06
22895 H 54.36829001149417 37.757472548695716 83.68747057438102 H 0.0 **** 0.06
22896 C 13.695044166728962 121.7299184165373 1.2660362879302482 C 0.0 **** -0.24
22897 H 13.725940705360472 122.7960339522735 1.490596281913696 H 0.0 **** 0.06
22898 H 12.840697604445722 121.27718640100589 1.770832178652796 H 0.0 **** 0.06
22899 H 14.613681774170544 121.25800755555386 1.6142893596299217 H 0.0 **** 0.06
22900 H 13.598613020431543 121.58808197053061 0.1902498270052746 H 0.0 **** 0.06
22901 C 41.93492456140538 57.40274090854015 13.25304756215536 C 0.0 **** -0.24
22902 H 40.906967936816386 57.10220822969467 13.052766854791855 H 0.0 **** 0.06
22903 H 42.01751502727589 57.752763767066284 14.28237451907961 H 0.0 **** 0.06
22904 H 42.21816528869354 58.20531632933921 12.572386494964348 H 0.0 **** 0.06
22905 H 42.59764416740694 56.54987201877091 13.104620683754604 H 0.0 **** 0.06
22906 C 101.82958595298214 83.07295901927316 64.45822400481154 C 0.0 **** -0.24
22907 H 101.67759289641418 83.85750762033626 65.19949907703986 H 0.0 **** 0.06
22908 H 101.78234187981695 83.50359850711152 63.45811963704586 H 0.0 **** 0.06
22909 H 101.05338540120144 82.31618421817012 64.56615760924853 H 0.0 **** 0.06
22910 H 102.80676554554248 82.61440508787737 64.61051477426011 H 0.0 **** 0.06
22911 C 30.54750054880796 101.24403643817169 103.11267430276664 C 0.0 **** -0.24
22912 H 30.97554307081743 100.95638101700203 102.15205516727391 H 0.0 **** 0.06
22913 H 30.757894453366987 100.46919865307629 103.84993405737865 H 0.0 **** 0.06
22914 H 29.469364841918292 101.36543447576375 103.00904984046917 H 0.0 **** 0.06
22915 H 30.989068131800927 102.18630971868433 103.43930918186032 H 0.0 **** 0.06
22916 C 120.46319550565536 22.309187441832442 110.22710312237439 C 0.0 **** -0.24
22917 H 120.73670819048695 21.552221667999177 109.49158031753632 H 0.0 **** 0.06
22918 H 121.36590275520408 22.766681997328007 110.63063679164634 H 0.0 **** 0.06
22919 H 119.89850247813743 21.84296582006619 111.03390623429658 H 0.0 **** 0.06
22920 H 119.85034009333211 23.073676422309973 109.74932494913037 H 0.0 **** 0.06
22921 C 56.78110912584211 35.36017222837958 56.67020783582396 C 0.0 **** -0.24
22922 H 57.189448438105785 36.27541628511284 57.099018356098355 H 0.0 **** 0.06
22923 H 56.04397761352706 34.937303366772056 57.35309451128825 H 0.0 **** 0.06
22924 H 57.58609757083485 34.64203368788736 56.51453908045431 H 0.0 **** 0.06
22925 H 56.30647950451436 35.586628609459154 55.71664229880611 H 0.0 **** 0.06
22926 C 26.124613830987016 23.473946197845997 23.467928226321476 C 0.0 **** -0.24
22927 H 26.17990546788465 23.45198497927074 24.556149550369724 H 0.0 **** 0.06
22928 H 25.11157122594784 23.734733140155008 23.161029220649652 H 0.0 **** 0.06
22929 H 26.38409111110667 22.49249349647446 23.070861137710963 H 0.0 **** 0.06
22930 H 26.823241132848864 24.217874767953887 23.085149829973346 H 0.0 **** 0.06
22931 C 26.344150000280123 13.069345087257432 72.75787337956874 C 0.0 **** -0.24
22932 H 26.55802062039298 14.135159679701815 72.83197257549074 H 0.0 **** 0.06
22933 H 27.197578371940395 12.557592281643508 72.3123262494293 H 0.0 **** 0.06
22934 H 25.463455750823705 12.918444461723993 72.13304475637108 H 0.0 **** 0.06
22935 H 26.157516277068574 12.665091529036886 73.75280606345657 H 0.0 **** 0.06
22936 C 77.2118473667798 73.19631503571304 88.84858003473136 C 0.0 **** -0.24
22937 H 76.67269164627629 72.36459440859437 88.39615657960127 H 0.0 **** 0.06
22938 H 77.28539517033352 74.01503096039119 88.13178566942483 H 0.0 **** 0.06
22939 H 78.21310483101479 72.86855009259784 89.13128457976427 H 0.0 **** 0.06
22940 H 76.67787363406478 73.53613915295648 89.73563906134845 H 0.0 **** 0.06
22941 C 18.81634166520456 91.27435625997992 53.0756469458957 C 0.0 **** -0.24
22942 H 18.372338975537787 90.57728310231192 53.786605999817425 H 0.0 **** 0.06
22943 H 19.519594438911156 90.74146729010147 52.43617765405878 H 0.0 **** 0.06
22944 H 19.341171016187957 92.06067590485287 53.617559908687554 H 0.0 **** 0.06
22945 H 18.030447422488294 91.71715883705448 52.462208805322234 H 0.0 **** 0.06
22946 C 68.26592828233629 70.36337829844632 20.377664587624736 C 0.0 **** -0.24
22947 H 68.46624958978856 70.75688153127635 19.381151314442945 H 0.0 **** 0.06
22948 H 67.69409750357116 71.09424126577707 20.94878101121577 H 0.0 **** 0.06
22949 H 69.21007334410808 70.16307851128818 20.885728868367835 H 0.0 **** 0.06
22950 H 67.69512279793568 69.43898623397408 20.294258992814264 H 0.0 **** 0.06
22951 C 110.30780543521459 76.12222587333639 82.18891936970266 C 0.0 **** -0.24
22952 H 109.60149599133959 76.384343049172 81.40069749257111 H 0.0 **** 0.06
22953 H 110.12922206250056 75.09548350358412 82.50972034306852 H 0.0 **** 0.06
22954 H 110.17506221783938 76.79676327689572 83.0341327141274 H 0.0 **** 0.06
22955 H 111.32521762784842 76.21239141372413 81.80830836641476 H 0.0 **** 0.06
22956 C 59.527018198062876 14.804959133467918 39.90656046854184 C 0.0 **** -0.24
22957 H 58.99888051270551 15.752236883317806 40.014706532476055 H 0.0 **** 0.06
22958 H 59.062924839526914 14.055768333416921 40.5477450061378 H 0.0 **** 0.06
22959 H 60.56977542506712 14.936377440741495 40.196166657126724 H 0.0 **** 0.06
22960 H 59.47589436339655 14.477508821949613 38.86881546085664 H 0.0 **** 0.06
22961 C 44.93531099953702 0.11598243546433196 69.20768902668593 C 0.0 **** -0.24
22962 H 44.71685607263504 0.963548241111539 69.85705006653836 H 0.0 **** 0.06
22963 H 44.79971064418386 -0.8125570617306721 69.76286657797556 H 0.0 **** 0.06
22964 H 45.9654349412248 0.18303013553560277 68.85729579356544 H 0.0 **** 0.06
22965 H 44.26006429197483 0.130649918125755 68.35135850964923 H 0.0 **** 0.06
22966 C 87.58999997534625 105.89229589203899 26.534808653905316 C 0.0 **** -0.24
22967 H 86.7783647673356 106.58198587299617 26.76816073023548 H 0.0 **** 0.06
22968 H 87.33813731228764 105.32381706758335 25.638709754583203 H 0.0 **** 0.06
22969 H 87.73638231973021 105.20842815882301 27.37068199615834 H 0.0 **** 0.06
22970 H 88.50615304028099 106.45630040666694 26.362188985459 H 0.0 **** 0.06
22971 C 14.445999156747913 95.05451974893674 36.64884466819187 C 0.0 **** -0.24
22972 H 13.846705583106313 94.5046297347609 37.37363515135372 H 0.0 **** 0.06
22973 H 15.008694919980478 95.83562583134875 37.15997076775198 H 0.0 **** 0.06
22974 H 13.789907016288431 95.50573348461006 35.903806109150615 H 0.0 **** 0.06
22975 H 15.137699001906416 94.37111430448107 36.15594967892329 H 0.0 **** 0.06
22976 C 88.26177166603088 63.94665525659571 93.68184733639413 C 0.0 **** -0.24
22977 H 89.33696398221497 63.90261507667959 93.85519978319712 H 0.0 **** 0.06
22978 H 87.74507844949062 63.37980542569981 94.45718312981086 H 0.0 **** 0.06
22979 H 88.03413649985845 63.51889961805377 92.70558279138447 H 0.0 **** 0.06
22980 H 87.93150640720228 64.98469397958516 93.70994640759693 H 0.0 **** 0.06
22981 C 57.95128938143375 122.07129362038316 85.90469344348688 C 0.0 **** -0.24
22982 H 57.824602585226984 121.04253981230195 86.2440992027177 H 0.0 **** 0.06
22983 H 58.257141523465094 122.07339967983208 84.85841185168226 H 0.0 **** 0.06
22984 H 58.71687271533284 122.55968429139429 86.50850790463798 H 0.0 **** 0.06
22985 H 57.008099532928014 122.6077660590779 86.01007553062365 H 0.0 **** 0.06
22986 C 103.62538875859923 23.175135961677853 14.921746013012857 C 0.0 **** -0.24
22987 H 104.4814333383741 23.11085035685653 15.593092527453294 H 0.0 **** 0.06
22988 H 103.94435782208879 23.58830962969452 13.964908315398617 H 0.0 **** 0.06
22989 H 102.86549612627061 23.82201117097378 15.362817333216853 H 0.0 **** 0.06
22990 H 103.20898806170112 22.179134096638307 14.767308523969437 H 0.0 **** 0.06
22991 C 11.93006955513269 10.571167006744247 17.724426191100008 C 0.0 **** -0.24
22992 H 12.434488390398002 9.63336029249453 17.49426262478957 H 0.0 **** 0.06
22993 H 11.174103802128599 10.77345384961751 16.965169327044038 H 0.0 **** 0.06
22994 H 12.658555038015976 11.381521441884615 17.7381989661623 H 0.0 **** 0.06
22995 H 11.452454070811768 10.495598516502014 18.702310689341928 H 0.0 **** 0.06
22996 C 88.43670824328285 14.481184226489795 39.08227532092019 C 0.0 **** -0.24
22997 H 89.26462064932002 13.883158839599659 38.702766746715724 H 0.0 **** 0.06
22998 H 87.51668727376796 14.190814148795756 38.57538012451607 H 0.0 **** 0.06
22999 H 88.63670213544921 15.53687344978449 38.897424390829485 H 0.0 **** 0.06
23000 H 88.33026208679823 14.314195665523322 40.15444424516534 H 0.0 **** 0.06
23001 C 12.116930386996358 75.26284402695475 22.42900020375891 C 0.0 **** -0.24
23002 H 11.060291425035103 75.53259365549894 22.45209705837796 H 0.0 **** 0.06
23003 H 12.425097965556375 74.9197101365587 23.417234524862998 H 0.0 **** 0.06
23004 H 12.707087690519586 76.1337864364749 22.144754220880074 H 0.0 **** 0.06
23005 H 12.272182062920763 74.46488417252877 21.702593885225653 H 0.0 **** 0.06
23006 C 51.24826370799517 25.338525865918427 32.12538614549352 C 0.0 **** -0.24
23007 H 51.43688140485423 26.33690916280233 32.520005309064594 H 0.0 **** 0.06
23008 H 51.73248501680727 24.59857883141757 32.76183267200366 H 0.0 **** 0.06
23009 H 51.64853888278264 25.267043066702342 31.113773494476042 H 0.0 **** 0.06
23010 H 50.17432706202028 25.153981810212514 32.104346031408745 H 0.0 **** 0.06
23011 C 3.267500262449346 54.02698378129253 55.40508064554754 C 0.0 **** -0.24
23012 H 2.912440638342673 53.0056771264596 55.26597446111674 H 0.0 **** 0.06
23013 H 3.416592768145719 54.217958844699524 56.46831304632579 H 0.0 **** 0.06
23014 H 2.530300031311569 54.72530155525868 55.009580704775544 H 0.0 **** 0.06
23015 H 4.212130055944314 54.15734334831035 54.876807911328 H 0.0 **** 0.06
23016 C 71.98580700311982 40.27349968360877 40.16904277538859 C 0.0 **** -0.24
23017 H 71.46042703179188 41.1631376147022 39.82093877192378 H 0.0 **** 0.06
23018 H 71.61173549864057 39.99338007597877 41.15357800686556 H 0.0 **** 0.06
23019 H 73.05315241630981 40.484055084411644 40.231949759710346 H 0.0 **** 0.06
23020 H 71.81739549368689 39.455564094355246 39.4686271440024 H 0.0 **** 0.06
23021 C 113.06784799815848 25.504610562807443 51.46608561037732 C 0.0 **** -0.24
23022 H 114.10767924065155 25.34349513152665 51.751597376623806 H 0.0 **** 0.06
23023 H 112.8611214469396 24.978893710954964 50.53362162625194 H 0.0 **** 0.06
23024 H 112.88938806361958 26.571204718571863 51.33076351313633 H 0.0 **** 0.06
23025 H 112.41270985219386 25.123477913323285 52.25078438073268 H 0.0 **** 0.06
23026 C 53.03169816936505 72.7276653207783 32.766916861648895 C 0.0 **** -0.24
23027 H 52.17933862764463 72.05486475461205 32.67464706143488 H 0.0 **** 0.06
23028 H 52.83975756024319 73.45069039235307 33.560565243789426 H 0.0 **** 0.06
23029 H 53.18261035403719 73.25346914247794 31.823828841519287 H 0.0 **** 0.06
23030 H 53.92508613553502 72.1516369936704 33.008626299851926 H 0.0 **** 0.06
23031 C 120.57707532001515 71.89738630985369 65.68864873913225 C 0.0 **** -0.24
23032 H 121.2152152925155 71.17400506647408 66.19621359470037 H 0.0 **** 0.06
23033 H 119.72061444769481 72.13297130133515 66.31956042701847 H 0.0 **** 0.06
23034 H 120.22844852526697 71.4749979694879 64.74581332352236 H 0.0 **** 0.06
23035 H 121.14457438493505 72.80650969319836 65.49025618850541 H 0.0 **** 0.06
23036 C 90.46423873777556 97.37556013729525 92.65151064593647 C 0.0 **** -0.24
23037 H 90.36208233382885 98.37870606447626 93.06337148462106 H 0.0 **** 0.06
23038 H 89.90755483443223 97.30772563305158 91.71741612112581 H 0.0 **** 0.06
23039 H 90.07039998199784 96.64842583147913 93.36322828052008 H 0.0 **** 0.06
23040 H 91.51767222012643 97.16554656458436 92.46468355552943 H 0.0 **** 0.06
23041 C 48.2520873457554 34.21633023830722 37.979365561396776 C 0.0 **** -0.24
23042 H 48.1041333370176 35.14805620299265 37.43381405983081 H 0.0 **** 0.06
23043 H 48.52092375877721 34.43981384422335 39.012100390186276 H 0.0 **** 0.06
23044 H 49.05341747963392 33.64553064339961 37.51076665391858 H 0.0 **** 0.06
23045 H 47.33169397360981 33.63317122203941 37.96042615738676 H 0.0 **** 0.06
23046 C 10.554862151012628 45.39296886615193 86.72524867916215 C 0.0 **** -0.24
23047 H 10.27984408683895 44.99614070424977 87.70223771507594 H 0.0 **** 0.06
23048 H 9.957813707334111 46.27965736632626 86.51198407316733 H 0.0 **** 0.06
23049 H 10.368518827405865 44.63704205932564 85.9622690150361 H 0.0 **** 0.06
23050 H 11.61243219393441 45.65673423233457 86.72449978252777 H 0.0 **** 0.06
23051 C 88.39827224659035 72.03937414903305 48.698292080926706 C 0.0 **** -0.24
23052 H 88.05371665998328 73.04761822468487 48.46861958276094 H 0.0 **** 0.06
23053 H 89.47358114073259 72.05615469768082 48.88130146217452 H 0.0 **** 0.06
23054 H 88.18338799104103 71.38249799432617 47.85587973553322 H 0.0 **** 0.06
23055 H 87.88333051973837 71.67339510810416 49.585807385339706 H 0.0 **** 0.06
23056 C 4.5858604433836945 99.1986545775716 17.486744167031304 C 0.0 **** -0.24
23057 H 4.121976458039626 98.8818778900532 18.420384493064716 H 0.0 **** 0.06
23058 H 5.2488613420850925 100.0432143329588 17.678172572966133 H 0.0 **** 0.06
23059 H 3.8116968799950257 99.49719856038797 16.779455378296234 H 0.0 **** 0.06
23060 H 5.161064246626751 98.37302270850446 17.068262738910278 H 0.0 **** 0.06
23061 C 7.6828313986478065 4.761706864665143 65.59374045539533 C 0.0 **** -0.24
23062 H 7.123378785692097 4.178392411843163 64.86292918768896 H 0.0 **** 0.06
23063 H 7.271837110774527 5.770592991049398 65.64428426151136 H 0.0 **** 0.06
23064 H 8.730322178442691 4.8102287778151265 65.29557466072373 H 0.0 **** 0.06
23065 H 7.604723305228987 4.288369772858601 66.57271710321129 H 0.0 **** 0.06
23066 C 119.00504007344182 90.76460015471272 96.40073141608539 C 0.0 **** -0.24
23067 H 118.2855267260035 90.77454805875016 95.58266439462102 H 0.0 **** 0.06
23068 H 118.93646125206001 91.69917689264287 96.95688819148435 H 0.0 **** 0.06
23069 H 120.0119323379082 90.6547777615337 95.99767043722784 H 0.0 **** 0.06
23070 H 118.78748252106237 89.9285179001842 97.06495974597038 H 0.0 **** 0.06
23071 C 23.955157699083173 32.548886347132 21.956881764673767 C 0.0 **** -0.24
23072 H 24.5231384483983 33.35030914757817 22.429938340215386 H 0.0 **** 0.06
23073 H 22.892759966253806 32.79299383223571 21.981917074556222 H 0.0 **** 0.06
23074 H 24.12750186304487 31.615491795224557 22.492945416955962 H 0.0 **** 0.06
23075 H 24.27813206266987 32.43824125047155 20.92100414865405 H 0.0 **** 0.06
23076 C 73.83785752101096 16.70599332860948 47.74971254337018 C 0.0 **** -0.24
23077 H 73.32925724249503 15.903362627975895 47.21578105243029 H 0.0 **** 0.06
23078 H 74.90900667926601 16.502412351563095 47.77576004965505 H 0.0 **** 0.06
23079 H 73.45415347679474 16.766274285750626 48.76724703323407 H 0.0 **** 0.06
23080 H 73.66019012388816 17.652048548834074 47.237305475155466 H 0.0 **** 0.06
23081 C 66.58138292184054 47.2818882015237 117.76254414716608 C 0.0 **** -0.24
23082 H 66.02515848950446 47.893752674031155 118.47309422104108 H 0.0 **** 0.06
23083 H 66.59893457431463 46.24858237385193 118.10866857567912 H 0.0 **** 0.06
23084 H 67.60271478357481 47.656430093144294 117.6831223735469 H 0.0 **** 0.06
23085 H 66.10011377662329 47.331274156566685 116.78623266070507 H 0.0 **** 0.06
23086 C 79.38477011620029 21.475656088301093 104.60109127613981 C 0.0 **** -0.24
23087 H 80.2802882139026 21.620737119078342 105.20588380069782 H 0.0 **** 0.06
23088 H 79.44812950793789 20.519267811795373 104.082041007507 H 0.0 **** 0.06
23089 H 79.30589312380178 22.281020988395028 103.87161073205718 H 0.0 **** 0.06
23090 H 78.5060677286371 21.48146582333044 105.24537494263797 H 0.0 **** 0.06
23091 C 70.27027326216037 108.73331411894475 68.41023933936552 C 0.0 **** -0.24
23092 H 69.77863842347392 108.34115099555552 69.30066699695288 H 0.0 **** 0.06
23093 H 70.17186850427271 109.81912212822414 68.3907034199467 H 0.0 **** 0.06
23094 H 69.80390136146622 108.3089686137942 67.52077978129233 H 0.0 **** 0.06
23095 H 71.32637322256315 108.46448019027102 68.43044620354769 H 0.0 **** 0.06
23096 C 83.6873180013738 6.087049753428211 19.82373718106935 C 0.0 **** -0.24
23097 H 83.12389512003156 5.951597380544818 20.74625946823504 H 0.0 **** 0.06
23098 H 84.75494177873335 6.051859501308723 20.04122570866708 H 0.0 **** 0.06
23099 H 83.43735427774553 7.053183623556567 19.384369843174138 H 0.0 **** 0.06
23100 H 83.43223410732409 5.291670083003087 19.12257344544066 H 0.0 **** 0.06
23101 C 1.822506090076331 8.829207427723059 70.23114840994407 C 0.0 **** -0.24
23102 H 2.891361933892995 8.893415022877804 70.0279571561743 H 0.0 **** 0.06
23103 H 1.4189403014713662 9.832541119007935 70.37092802882108 H 0.0 **** 0.06
23104 H 1.6595228182977735 8.242802158908354 71.13491131798335 H 0.0 **** 0.06
23105 H 1.321241251578499 8.349007482949574 69.39099266095116 H 0.0 **** 0.06
23106 C 23.707188138496377 15.609058488792584 38.49526291851517 C 0.0 **** -0.24
23107 H 23.604188971592293 15.980809146788118 39.515622096113475 H 0.0 **** 0.06
23108 H 24.760749447468527 15.428929968911092 38.28000620894281 H 0.0 **** 0.06
23109 H 23.315586301515992 16.350013163366242 37.79880813723706 H 0.0 **** 0.06
23110 H 23.148573220646142 14.679802944216675 38.38903408109067 H 0.0 **** 0.06
23111 C 29.19133967484842 62.73055013433125 48.75528111821774 C 0.0 **** -0.24
23112 H 29.590366094695895 63.43584852243046 48.02635572873339 H 0.0 **** 0.06
23113 H 29.022409554707394 63.24367384092315 49.70259039613205 H 0.0 **** 0.06
23114 H 29.903172481818643 61.91832840041127 48.90305136890589 H 0.0 **** 0.06
23115 H 28.248219734907423 62.32484490604625 48.389707385235795 H 0.0 **** 0.06
23116 C 73.91160577778348 47.306474982239806 43.69624040551059 C 0.0 **** -0.24
23117 H 73.547482178033 47.59084378711914 44.68368586637101 H 0.0 **** 0.06
23118 H 73.92314366753436 46.22063108074113 43.61161221651443 H 0.0 **** 0.06
23119 H 74.92146078765916 47.69312095227922 43.555560139849646 H 0.0 **** 0.06
23120 H 73.25395474410652 47.72381075716863 42.93284982894254 H 0.0 **** 0.06
23121 C 36.58070301734523 58.34451516726862 36.81206337474276 C 0.0 **** -0.24
23122 H 37.42237802125936 57.858036009411244 36.318839936984375 H 0.0 **** 0.06
23123 H 35.80578767906752 58.56183405311912 36.076350183909426 H 0.0 **** 0.06
23124 H 36.91691326966583 59.27348314161073 37.27239074505172 H 0.0 **** 0.06
23125 H 36.178078771453045 57.68300049314214 37.57927012226298 H 0.0 **** 0.06
23126 C 101.87574832910244 100.41033830979171 78.83123231163523 C 0.0 **** -0.24
23127 H 101.12359757187397 100.5490290195223 79.60768851807018 H 0.0 **** 0.06
23128 H 102.55662544426443 101.26199864666398 78.82918305571752 H 0.0 **** 0.06
23129 H 101.38681866722004 100.33341101044687 77.86020548803708 H 0.0 **** 0.06
23130 H 102.43728123658715 99.49742751426695 79.02984451223267 H 0.0 **** 0.06
23131 C 73.48317893176 106.79859818763464 83.62252613659882 C 0.0 **** -0.24
23132 H 74.15475193679225 106.92630081776082 84.47185993363118 H 0.0 **** 0.06
23133 H 73.8097510850985 105.94593454438098 83.02643342582482 H 0.0 **** 0.06
23134 H 73.49960742334548 107.6989433303653 83.00853033410223 H 0.0 **** 0.06
23135 H 72.46972450486211 106.6229280804348 83.98409673756214 H 0.0 **** 0.06
23136 C 96.03776931224564 23.585375563627437 3.8238781317744923 C 0.0 **** -0.24
23137 H 97.0430979395623 23.183140583822023 3.9431485111919784 H 0.0 **** 0.06
23138 H 95.30986254378323 22.850957517739168 4.167742878040073 H 0.0 **** 0.06
23139 H 95.85841973772665 23.80974254311495 2.7723552724964833 H 0.0 **** 0.06
23140 H 95.93872283408209 24.497802343046956 4.412089240882594 H 0.0 **** 0.06
23141 C 54.38415471193803 11.457740171017633 65.38533077050869 C 0.0 **** -0.24
23142 H 54.268274977343616 12.498590777426955 65.08071114830312 H 0.0 **** 0.06
23143 H 53.40110568503362 11.013180869821412 65.54016216702485 H 0.0 **** 0.06
23144 H 54.95501917757088 11.413538646503213 66.31305224743738 H 0.0 **** 0.06
23145 H 54.91248151444233 10.908816102391114 64.60644359598626 H 0.0 **** 0.06
23146 C 22.15786178693503 118.46910946982439 1.0886924212175586 C 0.0 **** -0.24
23147 H 23.105024396529643 118.76341381406468 1.541029780225756 H 0.0 **** 0.06
23148 H 22.111363562353176 118.84597007101834 0.0666757065835526 H 0.0 **** 0.06
23149 H 21.33392834469379 118.88581456596049 1.6686352769894341 H 0.0 **** 0.06
23150 H 22.081631011532153 117.38239310528058 1.0790762024999196 H 0.0 **** 0.06
23151 C 75.62413245403724 19.89789656404122 50.3790188185792 C 0.0 **** -0.24
23152 H 75.57663147839742 20.664106663913714 51.15338366660866 H 0.0 **** 0.06
23153 H 74.77754923414977 19.219316952016328 50.48774664739592 H 0.0 **** 0.06
23154 H 76.55415487867691 19.33931127670209 50.47705865905087 H 0.0 **** 0.06
23155 H 75.58612464924761 20.372529179135825 49.39832394361838 H 0.0 **** 0.06
23156 C 16.79066849371533 91.62886660398874 98.0353174212701 C 0.0 **** -0.24
23157 H 17.283459085043376 91.72622556814741 99.00226455017827 H 0.0 **** 0.06
23158 H 17.45572687381093 91.99199836692165 97.25075264232123 H 0.0 **** 0.06
23159 H 15.872320543079411 92.21597210572872 98.03477158935101 H 0.0 **** 0.06
23160 H 16.55200723155096 90.58161431603526 97.85306070590778 H 0.0 **** 0.06
23161 C 121.8215964608876 83.68574594471437 34.29026409391054 C 0.0 **** -0.24
23162 H 120.80295932684467 83.75064897321727 33.90690896649275 H 0.0 **** 0.06
23163 H 122.42246599538971 83.06702586613221 33.622604389486995 H 0.0 **** 0.06
23164 H 121.80802679116195 83.24011523455778 35.284529762954236 H 0.0 **** 0.06
23165 H 122.25216341733105 84.686353147702 34.34598249114396 H 0.0 **** 0.06
23166 C 89.10201526536787 101.1325482908976 46.416647289297345 C 0.0 **** -0.24
23167 H 89.42591873839882 100.17220309533138 46.01527989640377 H 0.0 **** 0.06
23168 H 88.87756525693482 101.0254091947865 47.47775591735487 H 0.0 **** 0.06
23169 H 88.20906284639528 101.46538425609384 45.887394669864534 H 0.0 **** 0.06
23170 H 89.89763735849857 101.86657147183396 46.285839685817194 H 0.0 **** 0.06
23171 C 81.33224049146804 23.07840306845617 75.48121564980539 C 0.0 **** -0.24
23172 H 80.89824253145946 23.524285317468298 76.37639046074986 H 0.0 **** 0.06
23173 H 80.7822116207362 22.17354396009418 75.22248534170711 H 0.0 **** 0.06
23174 H 82.37638511699117 22.82730571877468 75.66999938056813 H 0.0 **** 0.06
23175 H 81.27243659582282 23.787719491047255 74.65655950247111 H 0.0 **** 0.06
23176 C 7.113140197270468 63.65517559566922 21.14128327243199 C 0.0 **** -0.24
23177 H 6.40029257960785 62.843219960488454 21.003180556305182 H 0.0 **** 0.06
23178 H 7.811069462098828 63.39412882491541 21.937003997116136 H 0.0 **** 0.06
23179 H 6.578177055896617 64.56673065562137 21.411198153904948 H 0.0 **** 0.06
23180 H 7.662775766146524 63.817931560398506 20.21422698394521 H 0.0 **** 0.06
23181 C 69.90796731721912 69.79444633296143 28.704676865033036 C 0.0 **** -0.24
23182 H 68.92250241423233 69.95281310393838 29.141847286568463 H 0.0 **** 0.06
23183 H 70.48053680880821 70.7207903228373 28.75207015573045 H 0.0 **** 0.06
23184 H 69.79774041447297 69.48782647053568 27.66421232741135 H 0.0 **** 0.06
23185 H 70.43073743432853 69.01555136336273 29.259468845020706 H 0.0 **** 0.06
23186 C 23.48697538943736 105.73207150648798 58.12684813860386 C 0.0 **** -0.24
23187 H 23.86584086860131 106.47603173333695 57.42762633001789 H 0.0 **** 0.06
23188 H 22.396592184587803 105.75181944824314 58.12373636839547 H 0.0 **** 0.06
23189 H 23.851550100382127 105.95686796469346 59.129228788811645 H 0.0 **** 0.06
23190 H 23.833874599541275 104.74231516261273 57.82745787528003 H 0.0 **** 0.06
23191 C 105.66282298595559 31.4737770505142 37.13816588766375 C 0.0 **** -0.24
23192 H 105.41294014105321 31.994458544209166 38.06307643771334 H 0.0 **** 0.06
23193 H 104.9951215636678 30.62158914194967 37.00956676141411 H 0.0 **** 0.06
23194 H 106.69426998522098 31.124964130454003 37.18577626377131 H 0.0 **** 0.06
23195 H 105.54854822168926 32.156064820339196 36.29522172360274 H 0.0 **** 0.06
23196 C 90.67378767364318 30.456333660076524 51.48453213446203 C 0.0 **** -0.24
23197 H 90.15258312879138 30.472508587057092 52.44119470222083 H 0.0 **** 0.06
23198 H 91.60568621175267 29.899993856541585 51.588312195746056 H 0.0 **** 0.06
23199 H 90.89279468449786 31.477745833761674 51.17212011281002 H 0.0 **** 0.06
23200 H 90.04408666953063 29.975086362945632 50.73650152707131 H 0.0 **** 0.06
23201 C 102.26215852450042 54.54799740288564 114.8699521708057 C 0.0 **** -0.24
23202 H 103.05297175057848 54.47430477945886 115.61633341161223 H 0.0 **** 0.06
23203 H 101.80988497278565 55.53902534214632 114.91655076804057 H 0.0 **** 0.06
23204 H 101.50274039866417 53.79234387949771 115.06927090020321 H 0.0 **** 0.06
23205 H 102.6830369759731 54.38631561043954 113.87765360336704 H 0.0 **** 0.06
23206 C 122.01769299773619 109.74786333196982 42.902523539394736 C 0.0 **** -0.24
23207 H 122.49263731845994 110.65642485642368 43.273002943992594 H 0.0 **** 0.06
23208 H 120.98045308927311 109.95933303631361 42.642519558028255 H 0.0 **** 0.06
23209 H 122.0496220469131 108.98023824195823 43.675840677705054 H 0.0 **** 0.06
23210 H 122.54865509115376 109.39473897484802 42.018371071616286 H 0.0 **** 0.06
23211 C 29.91360913678949 8.593778690543719 32.3206889183258 C 0.0 **** -0.24
23212 H 29.754762752340582 9.5732105434945 31.868171220484783 H 0.0 **** 0.06
23213 H 29.722631299576165 7.817403332261819 31.579361772906736 H 0.0 **** 0.06
23214 H 29.23288167388955 8.468127997632894 33.16219596509069 H 0.0 **** 0.06
23215 H 30.94294692927548 8.517680630495523 32.67041580802953 H 0.0 **** 0.06
23216 C 114.33071308296184 89.27783041457124 22.19562400707116 C 0.0 **** -0.24
23217 H 114.09652591468927 89.865554942605 23.08267097515437 H 0.0 **** 0.06
23218 H 114.02450868261178 88.24335281844282 22.35313950344033 H 0.0 **** 0.06
23219 H 115.40482688267446 89.31519778655883 22.009185136049325 H 0.0 **** 0.06
23220 H 113.79853684251685 89.68716762909779 21.336720843599522 H 0.0 **** 0.06
23221 C 27.923898238670006 83.93594910662222 107.33925505057283 C 0.0 **** -0.24
23222 H 27.612670991509447 83.9147641359674 106.29427802079488 H 0.0 **** 0.06
23223 H 27.768124693741186 84.93597614155732 107.74378397842176 H 0.0 **** 0.06
23224 H 28.98015030368967 83.67653152638945 107.40765971323825 H 0.0 **** 0.06
23225 H 27.334847890395707 83.21718585491914 107.90837908886473 H 0.0 **** 0.06
23226 C 42.67466107737863 110.72368710540309 10.93478328543938 C 0.0 **** -0.24
23227 H 42.48936309383902 110.04862132825554 10.099550408638947 H 0.0 **** 0.06
23228 H 41.81754598872692 111.3855842577695 11.062986538750579 H 0.0 **** 0.06
23229 H 43.564919855294875 111.3176247789367 10.730471220847221 H 0.0 **** 0.06
23230 H 42.82524769606795 110.1432678079151 11.844275540827539 H 0.0 **** 0.06
23231 C 48.166083057260266 90.70323422591073 90.98852747802991 C 0.0 **** -0.24
23232 H 47.66675116010549 89.98372468875871 91.63679113221193 H 0.0 **** 0.06
23233 H 49.112409884125384 90.28539292683348 90.64351099487982 H 0.0 **** 0.06
23234 H 48.35520556182871 91.62278082743529 91.54336251181795 H 0.0 **** 0.06
23235 H 47.529965622981365 90.9210384606157 90.13044527321011 H 0.0 **** 0.06
23236 C 29.178646482633425 112.84706161823621 54.74092668365139 C 0.0 **** -0.24
23237 H 28.136029973854527 112.82332835901309 54.422438489626366 H 0.0 **** 0.06
23238 H 29.58599867793358 111.83600065805675 54.724432067222075 H 0.0 **** 0.06
23239 H 29.239426066097423 113.24839954832228 55.75251248601425 H 0.0 **** 0.06
23240 H 29.750458570460616 113.48047301034973 54.06339880619392 H 0.0 **** 0.06
23241 C 34.45534216209575 107.31545416812531 118.8283590762212 C 0.0 **** -0.24
23242 H 33.81605643166449 107.86460500198723 118.13758689407842 H 0.0 **** 0.06
23243 H 35.152912167555314 106.69567683142512 118.26287485630104 H 0.0 **** 0.06
23244 H 33.840506441748886 106.68150105023471 119.46691963471301 H 0.0 **** 0.06
23245 H 35.013932046857974 108.02060129487899 119.44482080653947 H 0.0 **** 0.06
23246 C 16.105627147381767 53.85109430523323 36.30759498018884 C 0.0 **** -0.24
23247 H 16.09065345305538 52.92001870064473 35.73986070163629 H 0.0 **** 0.06
23248 H 15.47201879491439 53.74879909501669 37.18850715809293 H 0.0 **** 0.06
23249 H 15.732393458648232 54.66237718221737 35.682851978086006 H 0.0 **** 0.06
23250 H 17.127423710746314 54.071383073606285 36.617497868843884 H 0.0 **** 0.06
23251 C 110.60451859580195 45.40651734602258 51.003408025666175 C 0.0 **** -0.24
23252 H 111.60011100700584 45.00127171501305 50.82079396289623 H 0.0 **** 0.06
23253 H 110.5303624744104 46.40059921922992 50.56280365325878 H 0.0 **** 0.06
23254 H 110.42980143197227 45.46951294646493 52.077231366653194 H 0.0 **** 0.06
23255 H 109.85807176994018 44.75213261047335 50.55125099505432 H 0.0 **** 0.06
23256 C 16.05639172689814 62.75794029466755 56.13660276739472 C 0.0 **** -0.24
23257 H 15.032248189156377 63.125928468462746 56.06861091481687 H 0.0 **** 0.06
23258 H 16.28849601098736 62.16547697137594 55.25082626175276 H 0.0 **** 0.06
23259 H 16.160624351635278 62.1375107327392 57.02656390838828 H 0.0 **** 0.06
23260 H 16.742310818640362 63.60240267031469 56.19929561448862 H 0.0 **** 0.06
23261 C 63.29439785522796 94.37531972684349 100.22854130642395 C 0.0 **** -0.24
23262 H 63.907501937524025 95.24846681815413 100.45485469119703 H 0.0 **** 0.06
23263 H 62.3204431001002 94.70008018472075 99.86284896088111 H 0.0 **** 0.06
23264 H 63.16393554924198 93.78014770563948 101.13170791200099 H 0.0 **** 0.06
23265 H 63.78757807436249 93.77379985098685 99.4649430865831 H 0.0 **** 0.06
23266 C 106.39940158894188 121.6765840254452 36.50028639808528 C 0.0 **** -0.24
23267 H 105.91379580902321 122.1381289162327 37.36061745048397 H 0.0 **** 0.06
23268 H 105.64056617761048 121.30797406022242 35.808986373106535 H 0.0 **** 0.06
23269 H 107.02093431021405 120.8462097530061 36.83669511210883 H 0.0 **** 0.06
23270 H 107.02207041677656 122.41584444012155 35.99612202404589 H 0.0 **** 0.06
23271 C 78.2842889276728 113.12121236415803 31.83216458183564 C 0.0 **** -0.24
23272 H 78.81195310112659 113.50445185070072 32.70539372130993 H 0.0 **** 0.06
23273 H 78.09567933906845 113.9377889098171 31.134200129676834 H 0.0 **** 0.06
23274 H 77.33534051197321 112.68382683367415 32.14422065310768 H 0.0 **** 0.06
23275 H 78.89229905541424 112.35901538551795 31.345474182051063 H 0.0 **** 0.06
23276 C 20.248546273635895 51.10835582486138 89.27717846324393 C 0.0 **** -0.24
23277 H 20.06370506317853 52.18013836424515 89.35308679330458 H 0.0 **** 0.06
23278 H 20.2239380199384 50.80896110391026 88.22924841757904 H 0.0 **** 0.06
23279 H 19.478992828052128 50.56801932155415 89.829055372004 H 0.0 **** 0.06
23280 H 21.22688257340991 50.87835605835457 89.69848392223093 H 0.0 **** 0.06
23281 C 57.46191802511108 100.50696089515395 17.550893388988513 C 0.0 **** -0.24
23282 H 57.59535312848566 99.45018003831643 17.320499380867716 H 0.0 **** 0.06
23283 H 57.076269516162846 101.02351826850253 16.67128273548414 H 0.0 **** 0.06
23284 H 58.42024738088899 100.94032491823407 17.836386955317778 H 0.0 **** 0.06
23285 H 56.755142264408924 100.61364461355817 18.374165986735136 H 0.0 **** 0.06
23286 C 98.02784063364885 27.86310902200904 97.08480222503985 C 0.0 **** -0.24
23287 H 97.56178714592988 28.537171111670148 97.80347988073797 H 0.0 **** 0.06
23288 H 97.82717461680403 26.83083960892401 97.37191918321497 H 0.0 **** 0.06
23289 H 99.10393157518132 28.03464728750572 97.0709454732118 H 0.0 **** 0.06
23290 H 97.61610683280094 28.05036153055562 96.09258301578521 H 0.0 **** 0.06
23291 C 95.09745819899027 108.8194413369846 102.7543859862516 C 0.0 **** -0.24
23292 H 95.40676903671056 107.77538088872171 102.71225900923585 H 0.0 **** 0.06
23293 H 95.04564339617829 109.22294139330396 101.74250796406764 H 0.0 **** 0.06
23294 H 95.82040379729389 109.38935452195736 103.33670004730556 H 0.0 **** 0.06
23295 H 94.11665787227585 108.88858582491756 103.22446030670028 H 0.0 **** 0.06
23296 C 108.34020282710614 65.50538492331631 81.98748758674282 C 0.0 **** -0.24
23297 H 108.25677369907976 65.34985240838631 83.06320797741722 H 0.0 **** 0.06
23298 H 109.39102871776981 65.48721442970984 81.69921881389939 H 0.0 **** 0.06
23299 H 107.90792668130902 66.47114453761003 81.72569983026236 H 0.0 **** 0.06
23300 H 107.80525995628724 64.71360204732213 81.46425144290947 H 0.0 **** 0.06
23301 C 5.556178391040927 98.77062018449985 99.749870836926 C 0.0 **** -0.24
23302 H 4.619450532235303 99.24547837674268 99.45705386732453 H 0.0 **** 0.06
23303 H 5.802432556170089 97.98428845142064 99.0362263674005 H 0.0 **** 0.06
23304 H 5.4487574612054175 98.33932171522471 100.74492786078923 H 0.0 **** 0.06
23305 H 6.351471842872662 99.51531186479363 99.76053404738084 H 0.0 **** 0.06
23306 C 25.26976024843958 9.958330986828912 49.804720338523964 C 0.0 **** -0.24
23307 H 25.20322734828156 10.41218894172809 48.81565942540675 H 0.0 **** 0.06
23308 H 24.496006081894393 10.377167982174484 50.44868635448114 H 0.0 **** 0.06
23309 H 26.250750689873655 10.163170764125027 50.23271626612748 H 0.0 **** 0.06
23310 H 25.12854349502166 8.880632108837204 49.71964910641569 H 0.0 **** 0.06
23311 C 13.353989133946271 1.584695090753769 70.86643973146465 C 0.0 **** -0.24
23312 H 14.152271209747681 1.0224655587415583 71.34983475631935 H 0.0 **** 0.06
23313 H 13.635941487768179 1.8023576721385126 69.8359136318322 H 0.0 **** 0.06
23314 H 13.190626840617398 2.518365576285291 71.40369037781431 H 0.0 **** 0.06
23315 H 12.436609849764238 0.9949353412431208 70.87576137632789 H 0.0 **** 0.06
23316 C 107.04090669857365 36.89385581906676 75.95319555473014 C 0.0 **** -0.24
23317 H 107.73127387208876 37.686292563818206 75.66352967680803 H 0.0 **** 0.06
23318 H 106.84899344790315 36.24751987236238 75.09550423791882 H 0.0 **** 0.06
23319 H 106.10310947420186 37.334895948629615 76.29251421863896 H 0.0 **** 0.06
23320 H 107.47862600269687 36.30678982747238 76.75969873694999 H 0.0 **** 0.06
23321 C 5.934333902195476 21.138853487079942 115.62686982119183 C 0.0 **** -0.24
23322 H 5.340838517039629 21.380311212117142 116.50889337320108 H 0.0 **** 0.06
23323 H 5.740316594923257 20.10816855540761 115.33005172438853 H 0.0 **** 0.06
23324 H 6.993051178725466 21.258228922506326 115.85861840042483 H 0.0 **** 0.06
23325 H 5.662613309406311 21.809616838859462 114.81289962865978 H 0.0 **** 0.06
23326 C 99.61267601472179 53.887665374695466 100.25073900322928 C 0.0 **** -0.24
23327 H 99.33476342295006 54.72859909876393 99.61591843551008 H 0.0 **** 0.06
23328 H 99.54111632951648 52.96284183952476 99.67917910822433 H 0.0 **** 0.06
23329 H 98.93874003948099 53.84042642368137 101.10539381222048 H 0.0 **** 0.06
23330 H 100.63602650229413 54.020942974962786 100.60184867306742 H 0.0 **** 0.06
23331 C 2.2668857909949374 92.96322422492992 20.58720804838857 C 0.0 **** -0.24
23332 H 1.261180556687 92.74201189986945 20.945314522433 H 0.0 **** 0.06
23333 H 2.800399957127789 92.0311052065806 20.402619671507903 H 0.0 **** 0.06
23334 H 2.7993700670886597 93.54512508579757 21.338626666231598 H 0.0 **** 0.06
23335 H 2.203242233047355 93.53509892081212 19.660665528765744 H 0.0 **** 0.06
23336 C 30.76238486392492 100.60797163283698 21.296623357131466 C 0.0 **** -0.24
23337 H 31.108526568850266 99.84361222610349 20.60192870025878 H 0.0 **** 0.06
23338 H 29.672936358288155 100.62614886369872 21.304537003902027 H 0.0 **** 0.06
23339 H 31.140887292148307 101.58124362326217 20.982028775237097 H 0.0 **** 0.06
23340 H 31.130583835481332 100.38209728846908 22.297991668616845 H 0.0 **** 0.06
23341 C 78.55127411764676 33.8508343863229 43.11555506764586 C 0.0 **** -0.24
23342 H 77.4918203497271 33.7641970344724 43.35578784518913 H 0.0 **** 0.06
23343 H 79.12718070662339 33.9239899939366 44.038749009363926 H 0.0 **** 0.06
23344 H 78.71485447454211 34.74456557352184 42.51341126392657 H 0.0 **** 0.06
23345 H 78.86922667269354 32.972155131498596 42.555846235527326 H 0.0 **** 0.06
23346 C 95.68245739641074 40.13949369264549 12.205424992780365 C 0.0 **** -0.24
23347 H 95.86995607178966 39.65791456317379 11.245507839646791 H 0.0 **** 0.06
23348 H 96.25507273137981 41.06511216375213 12.265443839837388 H 0.0 **** 0.06
23349 H 95.98389836071979 39.47151905656665 13.011418963421264 H 0.0 **** 0.06
23350 H 94.6187211090182 40.36327910054547 12.297275086327573 H 0.0 **** 0.06
23351 C 51.33884768875075 105.36996161927354 22.991479398197555 C 0.0 **** -0.24
23352 H 51.5593884583831 106.20572839009552 22.326594547391124 H 0.0 **** 0.06
23353 H 51.360006851139445 104.4399491601364 22.42500685483668 H 0.0 **** 0.06
23354 H 50.34936911857113 105.50670767211176 23.42956945022381 H 0.0 **** 0.06
23355 H 52.085051026204155 105.33078900051024 23.78541405969284 H 0.0 **** 0.06
23356 C 28.86625630012645 117.3785489003603 113.88871822025419 C 0.0 **** -0.24
23357 H 29.929032296286493 117.60636633509672 113.96234875659697 H 0.0 **** 0.06
23358 H 28.35690305818764 118.18603564381587 113.36181441604315 H 0.0 **** 0.06
23359 H 28.446814369003903 117.27612122321094 114.8902676427121 H 0.0 **** 0.06
23360 H 28.73189895978163 116.44550988488194 113.34135413994 H 0.0 **** 0.06
23361 C 66.11800046246725 23.583258302723102 25.942232465499714 C 0.0 **** -0.24
23362 H 65.84594609319942 23.886349778437605 24.930636119119008 H 0.0 **** 0.06
23363 H 65.6682282802937 22.614958913960862 26.164005911877688 H 0.0 **** 0.06
23364 H 65.75495675949065 24.324900789854112 26.653764489144002 H 0.0 **** 0.06
23365 H 67.20215685580985 23.506406205198246 26.018217607589882 H 0.0 **** 0.06
23366 C 58.865681197036594 62.965274248600956 47.624633604331336 C 0.0 **** -0.24
23367 H 57.9964732452905 62.31984005482527 47.75708908178787 H 0.0 **** 0.06
23368 H 59.03887073190859 63.532575447971674 48.53921486011933 H 0.0 **** 0.06
23369 H 58.6854625036236 63.652563211227196 46.79822921416931 H 0.0 **** 0.06
23370 H 59.740830655345775 62.35392605535285 47.40389403913389 H 0.0 **** 0.06
23371 C 2.027381732446486 0.13246406354095974 15.788478849783814 C 0.0 **** -0.24
23372 H 1.0704187312216504 -0.36598829019701107 15.94317919868567 H 0.0 **** 0.06
23373 H 1.9574414605468746 0.7913200296583511 14.922766817872542 H 0.0 **** 0.06
23374 H 2.8019590490466157 -0.6144470054556113 15.615623581603415 H 0.0 **** 0.06
23375 H 2.2783779217197093 0.7185431126341228 16.672126034331995 H 0.0 **** 0.06
23376 C 33.00588000674125 102.97899212473803 96.53723349508246 C 0.0 **** -0.24
23377 H 33.32240609871806 102.03561868810377 96.09201115074887 H 0.0 **** 0.06
23378 H 33.18808627954647 102.9533944994412 97.61118727264997 H 0.0 **** 0.06
23379 H 31.94186575642661 103.12753251287924 96.35262155943107 H 0.0 **** 0.06
23380 H 33.56916774238266 103.79883166426919 96.09095195507163 H 0.0 **** 0.06
23381 C 59.60840035253663 40.65090235666894 112.97965000380074 C 0.0 **** -0.24
23382 H 60.45723073054857 40.33850085511058 113.58727190623532 H 0.0 **** 0.06
23383 H 59.87281381223027 40.580797553559535 111.9236182450709 H 0.0 **** 0.06
23384 H 59.34955099048458 41.68184309878409 113.2213178152184 H 0.0 **** 0.06
23385 H 58.75642800171676 40.00373848928575 113.18515938328822 H 0.0 **** 0.06
23386 C 109.97785320094835 30.614454155850837 45.012271710442974 C 0.0 **** -0.24
23387 H 110.02884939135197 29.675720998069608 44.46028747272001 H 0.0 **** 0.06
23388 H 110.13703500068107 30.42061711977638 46.07285620384587 H 0.0 **** 0.06
23389 H 108.99771067936251 31.068532736924368 44.86769857980312 H 0.0 **** 0.06
23390 H 110.7505713625884 31.29204199048337 44.64663172517348 H 0.0 **** 0.06
23391 C 4.953076026198431 59.050410122634084 18.836781901489346 C 0.0 **** -0.24
23392 H 4.364608889763588 59.0321310784178 17.920682392417596 H 0.0 **** 0.06
23393 H 4.752779793896167 59.97490267157739 19.37897293138065 H 0.0 **** 0.06
23394 H 6.013476081162622 58.997252058235354 18.58910044970374 H 0.0 **** 0.06
23395 H 4.682273953898061 58.197143022575595 19.45987475851456 H 0.0 **** 0.06
23396 C 18.657035011676104 61.989842788480594 41.11690892260194 C 0.0 **** -0.24
23397 H 18.4701680776938 62.760631760383866 41.86417206358047 H 0.0 **** 0.06
23398 H 18.92037229575329 62.46007865548673 40.16919648598275 H 0.0 **** 0.06
23399 H 17.760382471706244 61.38527950537573 40.98620122218176 H 0.0 **** 0.06
23400 H 19.478738830168925 61.35501740603484 41.448154583212215 H 0.0 **** 0.06
23401 C 121.27085042846689 119.19273087002499 116.08722866572964 C 0.0 **** -0.24
23402 H 121.3737616479838 119.25981106038878 117.17082901808845 H 0.0 **** 0.06
23403 H 120.83573338358931 118.22801907222679 115.82368453538737 H 0.0 **** 0.06
23404 H 122.25168475262733 119.28917371526835 115.62231157536888 H 0.0 **** 0.06
23405 H 120.62100153758799 119.99415565804293 115.73499736687654 H 0.0 **** 0.06
23406 C 99.40848375854375 27.876911844931726 56.7771391311845 C 0.0 **** -0.24
23407 H 100.10742250962258 27.043294631849264 56.84632800286883 H 0.0 **** 0.06
23408 H 99.94530461053677 28.81412519306746 56.92358241668171 H 0.0 **** 0.06
23409 H 98.64190510372643 27.77169850255767 57.54445745730695 H 0.0 **** 0.06
23410 H 98.93920524722577 27.876394761553023 55.79299047484139 H 0.0 **** 0.06
23411 C 45.469306758665056 33.39297106185879 41.353179480833234 C 0.0 **** -0.24
23412 H 46.07514794967 32.54813247806152 41.02637017899161 H 0.0 **** 0.06
23413 H 44.46111228530211 33.29324470922188 40.95093242583937 H 0.0 **** 0.06
23414 H 45.914098761245896 34.32072758958364 40.993764665793236 H 0.0 **** 0.06
23415 H 45.42671759483994 33.409001276477426 42.44226043655746 H 0.0 **** 0.06
23416 C 2.55374950543883 104.18551565199698 72.83109293178353 C 0.0 **** -0.24
23417 H 3.1267068955707575 103.68102569515912 72.05341509861535 H 0.0 **** 0.06
23418 H 1.5960459357036143 104.51088381427965 72.42513536351572 H 0.0 **** 0.06
23419 H 3.1105771827565345 105.0518230034788 73.18803919036964 H 0.0 **** 0.06
23420 H 2.3822014593733485 103.49803576990197 73.65993360440223 H 0.0 **** 0.06
23421 C 61.29579388891756 65.03287686349529 27.624357367190925 C 0.0 **** -0.24
23422 H 61.33667973840983 65.2446673454586 28.69302396369963 H 0.0 **** 0.06
23423 H 60.263415919599254 65.09787448260954 27.280365824584322 H 0.0 **** 0.06
23424 H 61.67881483415397 64.02847085728729 27.439477002623903 H 0.0 **** 0.06
23425 H 61.90536279648805 65.75894020653959 27.086881906172692 H 0.0 **** 0.06
23426 C 82.17073844031589 67.3503279123542 88.55029293029503 C 0.0 **** -0.24
23427 H 81.12356037656434 67.05393869880527 88.62474271220219 H 0.0 **** 0.06
23428 H 82.6514841967755 66.78380322336912 87.752448050309 H 0.0 **** 0.06
23429 H 82.67408677755978 67.1464995955703 89.49538318932775 H 0.0 **** 0.06
23430 H 82.2306331548946 68.41522668149051 88.32794117185779 H 0.0 **** 0.06
23431 C 72.33946271984598 52.59735209303187 99.39156359138155 C 0.0 **** -0.24
23432 H 72.98356903300686 53.47661860782901 99.38183831428174 H 0.0 **** 0.06
23433 H 72.39748970645957 52.093752589771526 98.42566937354482 H 0.0 **** 0.06
23434 H 71.3108612432568 52.902782030382866 99.58123868029767 H 0.0 **** 0.06
23435 H 72.66705455597446 51.91632106351392 100.17665175228063 H 0.0 **** 0.06
23436 C 77.78679997997176 59.04793150536659 112.87350696201733 C 0.0 **** -0.24
23437 H 78.34813959603503 59.83187210739078 113.38048429731019 H 0.0 **** 0.06
23438 H 76.74668394220137 59.358132472235525 112.76649670085823 H 0.0 **** 0.06
23439 H 77.83328342329239 58.13008500900247 113.46102063916635 H 0.0 **** 0.06
23440 H 78.21723114512267 58.871035025950164 111.88851066597798 H 0.0 **** 0.06
23441 C 94.25547764932529 47.8042836160937 64.99307476346851 C 0.0 **** -0.24
23442 H 95.26929184852648 48.1920333127818 64.89165439584531 H 0.0 **** 0.06
23443 H 93.64343386378485 48.16934730913397 64.16805957759604 H 0.0 **** 0.06
23444 H 93.83139453263544 48.14170280934826 65.93779314525986 H 0.0 **** 0.06
23445 H 94.28051393382268 46.714609505136536 64.97298339286743 H 0.0 **** 0.06
23446 C 109.86356584646347 61.61078467194591 18.425559274699083 C 0.0 **** -0.24
23447 H 110.85560398067125 61.6250626308896 17.97317485965317 H 0.0 **** 0.06
23448 H 109.22133299774907 60.925402044957764 17.872955689051764 H 0.0 **** 0.06
23449 H 109.43732151836562 62.6131990285989 18.396024213017597 H 0.0 **** 0.06
23450 H 109.94303779730194 61.27958592017825 19.46142016103329 H 0.0 **** 0.06
23451 C 93.08230795470624 28.80495200011788 27.860332266216375 C 0.0 **** -0.24
23452 H 92.53069819325049 28.98305159731197 28.783491699897695 H 0.0 **** 0.06
23453 H 93.15990131963363 27.732220634773597 27.684222075849448 H 0.0 **** 0.06
23454 H 94.08136179140516 29.23262701561754 27.946208092693723 H 0.0 **** 0.06
23455 H 92.55774653015794 29.27323941226689 27.027353663708794 H 0.0 **** 0.06
23456 C 4.660752802525293 52.03026092811794 104.75070831005871 C 0.0 **** -0.24
23457 H 4.374304312928846 52.02859098661753 105.80256933867645 H 0.0 **** 0.06
23458 H 4.002567780454555 52.69937255418398 104.19650416414197 H 0.0 **** 0.06
23459 H 4.573010640606077 51.020177043215796 104.3493954163149 H 0.0 **** 0.06
23460 H 5.690973040057543 52.370516491347075 104.65517590659903 H 0.0 **** 0.06
23461 C 81.47724178671783 31.463289428984275 43.94943592744522 C 0.0 **** -0.24
23462 H 82.35674839906702 32.02734500970635 43.635498562368525 H 0.0 **** 0.06
23463 H 81.73859652393628 30.82495711784943 44.79382193380536 H 0.0 **** 0.06
23464 H 81.12804126351563 30.846986170694514 43.12162595021147 H 0.0 **** 0.06
23465 H 80.68959189855025 32.15461125947497 44.24619477538897 H 0.0 **** 0.06
23466 C 18.60301312586833 79.37342985587219 39.72795843293903 C 0.0 **** -0.24
23467 H 18.09640883029273 78.48294341951078 39.35546260985575 H 0.0 **** 0.06
23468 H 18.559886482014946 79.38631123198829 40.81705911488024 H 0.0 **** 0.06
23469 H 18.110615042050753 80.26257100038387 39.333779161340374 H 0.0 **** 0.06
23470 H 19.643838931483103 79.36055577896812 39.404817568001704 H 0.0 **** 0.06
23471 C 7.75097914418998 14.67715910034996 54.50773459825572 C 0.0 **** -0.24
23472 H 8.033012667715056 13.9721559852482 53.725635604072124 H 0.0 **** 0.06
23473 H 7.344152372066215 15.580719582576776 54.05314292618115 H 0.0 **** 0.06
23474 H 8.629285227595389 14.932861523199037 55.10051097156111 H 0.0 **** 0.06
23475 H 6.997466309383096 14.222899310375801 55.151648891208424 H 0.0 **** 0.06
23476 C 44.27997333388345 91.06488614094047 21.878529976039772 C 0.0 **** -0.24
23477 H 43.95809480311231 90.02742082645955 21.96797299010842 H 0.0 **** 0.06
23478 H 45.045312396534634 91.27317635013884 22.62670541079956 H 0.0 **** 0.06
23479 H 43.42714908617846 91.72448679804512 22.036339542791325 H 0.0 **** 0.06
23480 H 44.69052089739666 91.23371423783101 20.882898059180775 H 0.0 **** 0.06
23481 C 90.58347517704448 66.3421486438937 92.44056939659797 C 0.0 **** -0.24
23482 H 91.51283638536867 66.10241462733325 92.95823872550815 H 0.0 **** 0.06
23483 H 90.75607590598185 66.33705127094726 91.36358368450774 H 0.0 **** 0.06
23484 H 90.23971251022127 67.32908529622878 92.74867708738489 H 0.0 **** 0.06
23485 H 89.82717575730456 65.598127353433 92.69046663697208 H 0.0 **** 0.06
23486 C 118.26538286981881 61.01108848020909 63.84644226686314 C 0.0 **** -0.24
23487 H 118.95410157090964 60.16725819017994 63.81242623801966 H 0.0 **** 0.06
23488 H 117.4807001875536 60.81013450104245 64.57690499940142 H 0.0 **** 0.06
23489 H 117.81774490684205 61.155338462370615 62.86302153437071 H 0.0 **** 0.06
23490 H 118.8077075863863 61.911304910032335 64.13393375852633 H 0.0 **** 0.06
23491 C 32.00585605208295 8.40859017530201 27.505125918141573 C 0.0 **** -0.24
23492 H 33.065567280222865 8.548289703287622 27.291377727626383 H 0.0 **** 0.06
23493 H 31.857281590270986 7.4429228600996 27.98842230561658 H 0.0 **** 0.06
23494 H 31.440544262899152 8.44043271154581 26.57344153369479 H 0.0 **** 0.06
23495 H 31.660574098612358 9.20356628602093 28.166271512721494 H 0.0 **** 0.06
23496 C 39.23583846214726 73.48363724886784 40.261403465403845 C 0.0 **** -0.24
23497 H 39.886609829820344 73.48458889543596 41.13561558551649 H 0.0 **** 0.06
23498 H 39.185881503651984 74.49007797589366 39.8450339993814 H 0.0 **** 0.06
23499 H 38.236411471075144 73.161517972155 40.55359686722383 H 0.0 **** 0.06
23500 H 39.63455601602345 72.79947565637752 39.512691685092165 H 0.0 **** 0.06
23501 C 49.95731382328012 109.39555302484004 90.1892727394571 C 0.0 **** -0.24
23502 H 49.676625806140265 108.54082584641722 89.57401604138289 H 0.0 **** 0.06
23503 H 50.540582153271515 110.097176158411 89.5924149700108 H 0.0 **** 0.06
23504 H 50.55322710024848 109.05417028187517 91.03546497272572 H 0.0 **** 0.06
23505 H 49.05802391867897 109.89057622435581 90.55547461798454 H 0.0 **** 0.06
23506 C 64.37596844150585 103.34571634839551 81.64885783868203 C 0.0 **** -0.24
23507 H 64.509100403919 102.30040360980684 81.37094910853159 H 0.0 **** 0.06
23508 H 64.31108984741971 103.42766223577803 82.73434566921597 H 0.0 **** 0.06
23509 H 63.45824491983396 103.72720993591372 81.19959022059567 H 0.0 **** 0.06
23510 H 65.22470180009233 103.92820289701172 81.2902616271397 H 0.0 **** 0.06
23511 C 38.14749163497317 114.90849563219865 101.80133343271396 C 0.0 **** -0.24
23512 H 38.38803852756386 115.82680575504281 102.33719801566536 H 0.0 **** 0.06
23513 H 37.07338491777939 114.72832293085997 101.85192712466045 H 0.0 **** 0.06
23514 H 38.67791103242332 114.07233568991103 102.25664313703729 H 0.0 **** 0.06
23515 H 38.45040628085181 115.00720348513346 100.75887306753162 H 0.0 **** 0.06
23516 C 83.13956140511664 53.88467017749591 19.482276801812432 C 0.0 **** -0.24
23517 H 83.33747956780408 54.59506564613756 18.678905859253167 H 0.0 **** 0.06
23518 H 83.10443611568923 52.87470175834715 19.073485717096887 H 0.0 **** 0.06
23519 H 82.18332624750613 54.12196389810726 19.949500722595104 H 0.0 **** 0.06
23520 H 83.93312889675397 53.948637802602185 20.226849105439065 H 0.0 **** 0.06
23521 C 98.33042402003008 23.732274233789155 83.50417646657962 C 0.0 **** -0.24
23522 H 98.6710482313801 23.67321455539917 84.53746402563795 H 0.0 **** 0.06
23523 H 99.19144388848107 23.830823941254522 82.84281658682787 H 0.0 **** 0.06
23524 H 97.67955789049307 24.59810076196436 83.38591917439126 H 0.0 **** 0.06
23525 H 97.77941229452992 22.82594773081746 83.25146809302913 H 0.0 **** 0.06
23526 C 40.478313369284 49.20914403551714 82.27175767271808 C 0.0 **** -0.24
23527 H 39.96311014399341 49.51257527709316 81.35986058380348 H 0.0 **** 0.06
23528 H 40.8777996770921 48.20266986638942 82.1447002037371 H 0.0 **** 0.06
23529 H 39.776605346421306 49.21943640954005 83.10599688687711 H 0.0 **** 0.06
23530 H 41.294841620506745 49.901687151389645 82.47500567694931 H 0.0 **** 0.06
23531 C 113.60373317246604 97.92514628937218 19.084376343666065 C 0.0 **** -0.24
23532 H 114.0306322773402 97.49840490544992 18.176816940779474 H 0.0 **** 0.06
23533 H 113.08246943090262 97.1465345715514 19.640646056993262 H 0.0 **** 0.06
23534 H 112.90186169710225 98.71521598583948 18.818185785941296 H 0.0 **** 0.06
23535 H 114.40168170613151 98.33999035061058 19.699234541052647 H 0.0 **** 0.06
23536 C 90.50241242619427 30.475640492439652 100.6237700089566 C 0.0 **** -0.24
23537 H 91.09267042044121 30.679240835397195 101.51827693197464 H 0.0 **** 0.06
23538 H 90.98806946339289 29.69384722681943 100.04010260323295 H 0.0 **** 0.06
23539 H 90.42651193296791 31.383351709519715 100.02616769992386 H 0.0 **** 0.06
23540 H 89.5046932697993 30.14681317311144 100.91443855857523 H 0.0 **** 0.06
23541 C 20.819572624445698 35.757153079101684 39.508844486632526 C 0.0 **** -0.24
23542 H 20.750661560347794 36.837040923550504 39.37735820241918 H 0.0 **** 0.06
23543 H 21.842751146975843 35.48816133335636 39.77538792208073 H 0.0 **** 0.06
23544 H 20.5438541940934 35.25942551279532 38.57887794248983 H 0.0 **** 0.06
23545 H 20.14234018880319 35.44353938702496 40.303492099979046 H 0.0 **** 0.06
23546 C 9.415262856659709 9.220908690241572 47.75648514823021 C 0.0 **** -0.24
23547 H 8.984139947070126 8.225096148973478 47.853554625710245 H 0.0 **** 0.06
23548 H 8.755713012615622 9.845073196613384 47.152286598839225 H 0.0 **** 0.06
23549 H 10.390228950345463 9.14839693968787 47.27329640941937 H 0.0 **** 0.06
23550 H 9.531074846288895 9.664697424700393 48.74544232007807 H 0.0 **** 0.06
23551 C 121.36991457855055 76.81252724460884 27.86404256084913 C 0.0 **** -0.24
23552 H 121.29599030935356 75.92163991315161 28.487718033315645 H 0.0 **** 0.06
23553 H 122.21290105473008 76.70891004453034 27.18136520845789 H 0.0 **** 0.06
23554 H 121.51848924539854 77.68735491788374 28.49746680146822 H 0.0 **** 0.06
23555 H 120.44960480691071 76.93166608476074 27.291222295795365 H 0.0 **** 0.06
23556 C 94.0422112579993 46.7490864753058 39.605506900978156 C 0.0 **** -0.24
23557 H 94.23792604446825 47.59999840299492 40.25868359413576 H 0.0 **** 0.06
23558 H 94.98548392605156 46.26623235398394 39.346746783046655 H 0.0 **** 0.06
23559 H 93.54802246134119 47.094604485723416 38.69793110682022 H 0.0 **** 0.06
23560 H 93.39833520370439 46.0360880713381 40.12210357837645 H 0.0 **** 0.06
23561 C 119.70697486694355 58.68418929579807 107.35459048604 C 0.0 **** -0.24
23562 H 119.38281276551126 59.485744657123384 106.69067477002758 H 0.0 **** 0.06
23563 H 120.19501906009593 59.11359403809623 108.23030141818691 H 0.0 **** 0.06
23564 H 120.40947906870107 58.038441966899605 106.82720505524256 H 0.0 **** 0.06
23565 H 118.84275797153691 58.10076918991587 107.66989698300861 H 0.0 **** 0.06
23566 C 117.54338347005813 40.36208571053004 32.18560139798706 C 0.0 **** -0.24
23567 H 118.58891825497744 40.354907568569416 32.49299624789592 H 0.0 **** 0.06
23568 H 117.29280048229583 41.340848705101195 31.774361327998633 H 0.0 **** 0.06
23569 H 116.90920662268951 40.15689617125378 33.04755792880758 H 0.0 **** 0.06
23570 H 117.38266146082907 39.59697816356248 31.42596068287446 H 0.0 **** 0.06
23571 C 84.23224441050564 41.22577310260836 1.104795407797356 C 0.0 **** -0.24
23572 H 84.88340330315481 41.005645069952195 0.2583564433318415 H 0.0 **** 0.06
23573 H 84.8055033736668 41.737815705890505 1.8785413223433594 H 0.0 **** 0.06
23574 H 83.83115387898414 40.295677582159016 1.505923527051392 H 0.0 **** 0.06
23575 H 83.41261538607642 41.86340549422774 0.7765101427409942 H 0.0 **** 0.06
23576 C 84.25334372600969 17.88999507180222 61.715048725021454 C 0.0 **** -0.24
23577 H 84.207982577932 17.239174791323805 62.588647887520615 H 0.0 **** 0.06
23578 H 84.19578847001046 17.285921736535172 60.80851740522713 H 0.0 **** 0.06
23579 H 85.19132216124538 18.44460652475135 61.723805747229214 H 0.0 **** 0.06
23580 H 83.41707260209094 18.589042118427116 61.73911094541133 H 0.0 **** 0.06
23581 C 31.07047457846346 19.175524692807244 115.22584547018931 C 0.0 **** -0.24
23582 H 30.30975782034477 18.40779791210042 115.3688481198526 H 0.0 **** 0.06
23583 H 30.97391470718844 19.60162251293673 114.22684946863177 H 0.0 **** 0.06
23584 H 32.059747199583626 18.732043516306135 115.33917799260826 H 0.0 **** 0.06
23585 H 30.936734585659394 19.9608350256745 115.9698914567677 H 0.0 **** 0.06
23586 C 39.41559018750394 15.630269632665147 121.30897673161155 C 0.0 **** -0.24
23587 H 39.398701461072136 16.28760784813784 120.43932599587092 H 0.0 **** 0.06
23588 H 39.516665866459874 14.5957357622666 120.97995767109789 H 0.0 **** 0.06
23589 H 38.48788764286721 15.744812649741789 121.8687293178954 H 0.0 **** 0.06
23590 H 40.258828632233985 15.893220489035798 121.94698053548144 H 0.0 **** 0.06
23591 C 39.49335073269697 19.115991566284976 5.776021477994391 C 0.0 **** -0.24
23592 H 40.451097282927776 18.612757030598843 5.643199491016503 H 0.0 **** 0.06
23593 H 39.65724320737357 20.092888183826282 6.232198472519258 H 0.0 **** 0.06
23594 H 38.8538634646722 18.51531378714662 6.422549396593979 H 0.0 **** 0.06
23595 H 39.01323420187964 19.243743963663853 4.805576941533957 H 0.0 **** 0.06
23596 C 0.7117134322568006 55.79527982173271 107.2160874481834 C 0.0 **** -0.24
23597 H 1.6758799029610056 55.38088917874142 107.51360322639414 H 0.0 **** 0.06
23598 H 0.12762759239095622 55.02684637295187 106.70949697701846 H 0.0 **** 0.06
23599 H 0.8714169380627084 56.63554741256488 106.53993929123374 H 0.0 **** 0.06
23600 H 0.1755545913407488 56.13803417504892 108.10040538671359 H 0.0 **** 0.06
23601 C 91.29405720219387 83.23199381451539 40.21949095973156 C 0.0 **** -0.24
23602 H 90.89606214782319 82.96189699986573 41.19753940791667 H 0.0 **** 0.06
23603 H 92.08815684626674 82.53685193524657 39.945374744215826 H 0.0 **** 0.06
23604 H 91.69613825899674 84.24498603726488 40.25839826238707 H 0.0 **** 0.06
23605 H 90.49726520432574 83.1856718087241 39.47674474060702 H 0.0 **** 0.06
23606 C 48.27499173514417 49.408544203436946 61.934161340462786 C 0.0 **** -0.24
23607 H 47.330391560691226 49.827384093952986 61.58689084607649 H 0.0 **** 0.06
23608 H 48.08424763392742 48.71729326260416 62.756034835580984 H 0.0 **** 0.06
23609 H 48.92390300224696 50.21380031964242 62.279914052114655 H 0.0 **** 0.06
23610 H 48.75944342899152 48.87715889507649 61.11552143718938 H 0.0 **** 0.06
23611 C 62.781876923635565 118.19604074561907 16.168053666765786 C 0.0 **** -0.24
23612 H 62.80241422693027 117.1933026711352 15.74244980944485 H 0.0 **** 0.06
23613 H 63.801406421325055 118.52823501455178 16.365565031522465 H 0.0 **** 0.06
23614 H 62.217473954648426 118.18337778715198 17.101220396570056 H 0.0 **** 0.06
23615 H 62.30637316995853 118.87947292742443 15.464366394946126 H 0.0 **** 0.06
23616 C 100.43651351034859 114.05282461426737 122.50430561881903 C 0.0 **** -0.24
23617 H 99.82734793681124 114.8951247108376 122.83023338214691 H 0.0 **** 0.06
23618 H 100.64925371883393 113.40695513950219 123.35580683351469 H 0.0 **** 0.06
23619 H 101.3723705312255 114.4215607587 122.08471366530688 H 0.0 **** 0.06
23620 H 99.8960164084443 113.48759180536054 121.74450371738267 H 0.0 **** 0.06
23621 C 26.397924157745265 46.818751660926324 87.91048539250238 C 0.0 **** -0.24
23622 H 25.771536406105874 46.76361477058629 88.80181559814454 H 0.0 **** 0.06
23623 H 26.28130920790848 45.903950733697485 87.32907300161932 H 0.0 **** 0.06
23624 H 27.440343980955156 46.93223097049653 88.20589428567044 H 0.0 **** 0.06
23625 H 26.09439391989894 47.67434289743585 87.30723987187733 H 0.0 **** 0.06
23626 C 59.836397718242665 34.72539886648258 88.32321566436144 C 0.0 **** -0.24
23627 H 59.16853646101549 33.92722237862199 88.64915405493298 H 0.0 **** 0.06
23628 H 59.9094463481577 35.48019701964455 89.1056808268819 H 0.0 **** 0.06
23629 H 59.44169202907443 35.18073010183798 87.41471578224588 H 0.0 **** 0.06
23630 H 60.82473641057817 34.31200959788839 88.12206876680136 H 0.0 **** 0.06
23631 C 117.94613214003581 50.15717938735145 54.90415327092683 C 0.0 **** -0.24
23632 H 116.85619462526074 50.14760060834243 54.918281204222126 H 0.0 **** 0.06
23633 H 118.31070535469453 49.256733205613386 54.40796049037891 H 0.0 **** 0.06
23634 H 118.32279895166171 50.18795314414231 55.92602956470873 H 0.0 **** 0.06
23635 H 118.29376195483097 51.03623451596985 54.36154501759228 H 0.0 **** 0.06
23636 C 76.18590997956304 68.5568169441209 92.75807551725734 C 0.0 **** -0.24
23637 H 76.08603212960281 69.56109133644998 92.34670163539352 H 0.0 **** 0.06
23638 H 76.86694800435362 67.97651871918686 92.13549274227421 H 0.0 **** 0.06
23639 H 75.2087150680247 68.0737329548706 92.7760232505201 H 0.0 **** 0.06
23640 H 76.58099825412873 68.61673413217432 93.77197506421669 H 0.0 **** 0.06
23641 C 16.445784982956013 107.58309040395253 36.923377524917925 C 0.0 **** -0.24
23642 H 16.731870645603124 107.02804850854909 37.81680162256049 H 0.0 **** 0.06
23643 H 16.316098919266324 106.89171789860976 36.09138915206455 H 0.0 **** 0.06
23644 H 17.225754679348796 108.30410157670582 36.67882428778637 H 0.0 **** 0.06
23645 H 15.50999916751843 108.11056905633203 37.10765800707085 H 0.0 **** 0.06
23646 C 23.777958252085455 120.32913386959731 26.084826254090046 C 0.0 **** -0.24
23647 H 23.93340242349109 121.40604305399475 26.147983479814513 H 0.0 **** 0.06
23648 H 22.95039899539225 120.12148465765449 25.405562916951737 H 0.0 **** 0.06
23649 H 23.54389188741081 119.93716281072659 27.073793728293822 H 0.0 **** 0.06
23650 H 24.684353279788553 119.85286533308192 25.709748238606892 H 0.0 **** 0.06
23651 C 51.828502863722505 57.137397222814194 9.238827975081648 C 0.0 **** -0.24
23652 H 52.67672858245316 56.49423901217548 9.005331185654569 H 0.0 **** 0.06
23653 H 51.878219835752205 57.43590505316494 10.286912673950042 H 0.0 **** 0.06
23654 H 50.900651030269145 56.59494254454592 9.059114339768229 H 0.0 **** 0.06
23655 H 51.85992455178167 58.02358434194965 8.606160517446625 H 0.0 **** 0.06
23656 C 75.45349019053086 52.522758523476995 106.7512782771457 C 0.0 **** -0.24
23657 H 76.47369703255589 52.78590052513184 107.03146114866402 H 0.0 **** 0.06
23658 H 75.20349067745818 51.547289027661265 107.16848162700336 H 0.0 **** 0.06
23659 H 75.37310807407323 52.48712273076299 105.66537548742704 H 0.0 **** 0.06
23660 H 74.76598120351463 53.27305739283429 107.14228102735319 H 0.0 **** 0.06
23661 C 81.79559352257616 3.89868356768568 2.580926129647139 C 0.0 **** -0.24
23662 H 81.78255439558089 4.442212829566188 3.5247576599966948 H 0.0 **** 0.06
23663 H 82.64762437115195 4.226893267299431 1.9846895867873826 H 0.0 **** 0.06
23664 H 80.8725342453292 4.094914726360116 2.035701390495049 H 0.0 **** 0.06
23665 H 81.8800145207766 2.8293477651706667 2.7786563871777332 H 0.0 **** 0.06
23666 C 83.49782164615044 0.05707500049967251 90.53891417196397 C 0.0 **** -0.24
23667 H 84.07464058160679 -0.6423799715228338 91.14256199088098 H 0.0 **** 0.06
23668 H 83.06699278467136 0.8246172084209977 91.18276869436545 H 0.0 **** 0.06
23669 H 82.6980512614034 -0.47786583336575816 90.02680699368713 H 0.0 **** 0.06
23670 H 84.15090986304654 0.5254802243252534 89.80206513768397 H 0.0 **** 0.06
23671 C 78.39236126280338 117.54057073157327 89.59512232776359 C 0.0 **** -0.24
23672 H 77.63553672061266 118.12204520010611 90.12303924056741 H 0.0 **** 0.06
23673 H 79.35150727890607 117.64730459542547 90.10228202344362 H 0.0 **** 0.06
23674 H 78.47932678221846 117.90406576563583 88.57082963017618 H 0.0 **** 0.06
23675 H 78.10114223648566 116.4903488256165 89.58460833780669 H 0.0 **** 0.06
23676 C 77.28574785564015 76.42643335988018 78.58105366714338 C 0.0 **** -0.24
23677 H 77.27923306383659 76.14394340632907 77.52862738653818 H 0.0 **** 0.06
23678 H 78.31587840977528 76.53068260430533 78.92235600974831 H 0.0 **** 0.06
23679 H 76.78473766903477 75.65599302628425 79.16741842708501 H 0.0 **** 0.06
23680 H 76.76355328201976 77.37559160432167 78.70503604957264 H 0.0 **** 0.06
23681 C 99.92548959741575 101.02584574461247 53.850966328823034 C 0.0 **** -0.24
23682 H 98.91745737475986 101.18751343816359 54.23430793374183 H 0.0 **** 0.06
23683 H 99.99294213733393 101.41302006375798 52.83429807975432 H 0.0 **** 0.06
23684 H 100.14593859270636 99.95840181133343 53.85006346905632 H 0.0 **** 0.06
23685 H 100.643025965406 101.544911920434 54.48694355418658 H 0.0 **** 0.06
23686 C 111.63965727917801 55.87333726918092 41.57874559823878 C 0.0 **** -0.24
23687 H 111.43542904493697 56.89921253108693 41.88578618384031 H 0.0 **** 0.06
23688 H 111.70625527126234 55.826845667268856 40.49192116448455 H 0.0 **** 0.06
23689 H 110.83345658193701 55.2249618452326 41.92251572231021 H 0.0 **** 0.06
23690 H 112.58205996004486 55.544522707929076 42.016225054025085 H 0.0 **** 0.06
23691 C 32.80576276484064 111.04837855760783 10.95194736162432 C 0.0 **** -0.24
23692 H 31.716456073293756 111.01778091994876 10.918096555173179 H 0.0 **** 0.06
23693 H 33.208719723919785 110.14238012474698 10.500310774605339 H 0.0 **** 0.06
23694 H 33.13443792899838 111.11571747153366 11.989102241375235 H 0.0 **** 0.06
23695 H 33.16199409288569 111.91895880552691 10.401360044402225 H 0.0 **** 0.06
23696 C 63.83658861084333 72.8285864686352 121.68709587993722 C 0.0 **** -0.24
23697 H 63.043305303622496 73.53539721078414 121.93368944565171 H 0.0 **** 0.06
23698 H 63.64699945824926 72.39995765755486 120.70335384749501 H 0.0 **** 0.06
23699 H 63.858143400754535 72.03379717333519 122.43269798214742 H 0.0 **** 0.06
23700 H 64.79574831261439 73.34641526878477 121.68060485100267 H 0.0 **** 0.06
23701 C 74.43017490996039 116.51485921889864 106.05072085859192 C 0.0 **** -0.24
23702 H 75.07117234808254 116.91983893790993 106.83366774627078 H 0.0 **** 0.06
23703 H 73.8421431384835 117.32054162287648 105.60985161059597 H 0.0 **** 0.06
23704 H 73.76037266728832 115.76906927560819 106.4797260902333 H 0.0 **** 0.06
23705 H 75.04610161026841 116.05092292406724 105.28018237409347 H 0.0 **** 0.06
23706 C 72.04622531183838 94.74422643786119 54.13884760725665 C 0.0 **** -0.24
23707 H 71.52568360477696 95.18799749557715 53.289695232130015 H 0.0 **** 0.06
23708 H 72.6460876787894 93.90087225772285 53.79537264490128 H 0.0 **** 0.06
23709 H 71.31747099275444 94.39849719067044 54.87079327598519 H 0.0 **** 0.06
23710 H 72.69618002071587 95.4906209116889 54.59627993366914 H 0.0 **** 0.06
23711 C 52.80118562924281 7.2769374803135065 74.7043932464336 C 0.0 **** -0.24
23712 H 52.647452488916656 7.456554699937868 73.63977548772499 H 0.0 **** 0.06
23713 H 53.2235743636611 8.169101892409401 75.16594011141794 H 0.0 **** 0.06
23714 H 53.48899093756563 6.440463343241504 74.8346318559492 H 0.0 **** 0.06
23715 H 51.84756046938264 7.039404087069613 75.17477502106391 H 0.0 **** 0.06
23716 C 8.342932208515833 12.289629017157637 1.254729539576715 C 0.0 **** -0.24
23717 H 7.39059888719359 12.57272658988304 0.8066501660966026 H 0.0 **** 0.06
23718 H 8.306086590875026 12.468950082264627 2.329567445248557 H 0.0 **** 0.06
23719 H 9.142960320727212 12.885077040793785 0.8140631825459366 H 0.0 **** 0.06
23720 H 8.53203112486159 11.23272578310797 1.0683743652119233 H 0.0 **** 0.06
23721 C 64.52573565204057 11.322710438045135 101.60561706170404 C 0.0 **** -0.24
23722 H 64.88237179301734 12.129823937101435 100.96578146826732 H 0.0 **** 0.06
23723 H 63.55376394758599 10.979318432151558 101.24857759934537 H 0.0 **** 0.06
23724 H 64.4302228269612 11.68530948272786 102.62864751652518 H 0.0 **** 0.06
23725 H 65.23575123639114 10.4957214694507 101.57725712838268 H 0.0 **** 0.06
23726 C 42.86482965311177 61.284527108080965 12.933640970387216 C 0.0 **** -0.24
23727 H 41.83799666255379 60.97490928513855 12.739254914837204 H 0.0 **** 0.06
23728 H 42.93117770738701 62.37119970790451 12.89087802909006 H 0.0 **** 0.06
23729 H 43.52277291466572 60.85031277274089 12.181131380814122 H 0.0 **** 0.06
23730 H 43.1662056673386 60.93995644258865 13.922494672352968 H 0.0 **** 0.06
23731 C 20.327108079128692 56.56161019934973 115.11362104666496 C 0.0 **** -0.24
23732 H 20.640028544922988 57.60478251916905 115.16167769034038 H 0.0 **** 0.06
23733 H 21.199311029012286 55.91524933951277 115.21690629555933 H 0.0 **** 0.06
23734 H 19.84411029872914 56.37060738872171 114.15501621024555 H 0.0 **** 0.06
23735 H 19.62477438155706 56.35540197758084 115.92177679935752 H 0.0 **** 0.06
23736 C 34.33386595028625 47.1387412017757 107.14743067307944 C 0.0 **** -0.24
23737 H 34.83229265319986 46.43931755627938 107.8189472703234 H 0.0 **** 0.06
23738 H 33.793068530687066 47.88176691503003 107.7348854847707 H 0.0 **** 0.06
23739 H 33.63324125271683 46.596645353731276 106.5133769060505 H 0.0 **** 0.06
23740 H 35.07723245851088 47.63692961647331 106.52547437243794 H 0.0 **** 0.06
23741 C 25.19592672053966 1.8678011830399157 3.5008216875789344 C 0.0 **** -0.24
23742 H 24.80642839314686 1.0771199647679879 4.14198733410683 H 0.0 **** 0.06
23743 H 26.05284624676176 1.49218884517758 2.940272394185712 H 0.0 **** 0.06
23744 H 25.506015171899662 2.7134379290144466 4.114762873391157 H 0.0 **** 0.06
23745 H 24.419267739901557 2.187935098356405 2.8062093949992004 H 0.0 **** 0.06
23746 C 52.44926490630695 66.97265531609321 31.073193985216676 C 0.0 **** -0.24
23747 H 52.156527877546296 67.94203875369385 30.67013828417575 H 0.0 **** 0.06
23748 H 53.278012175157755 66.57155157581579 30.48806067262752 H 0.0 **** 0.06
23749 H 51.603617165232436 66.28718218349053 31.023278283724302 H 0.0 **** 0.06
23750 H 52.761141415514544 67.0908416228896 32.111261521027416 H 0.0 **** 0.06
23751 C 16.985473203697865 27.92467821960915 9.968629405503862 C 0.0 **** -0.24
23752 H 16.776015171044946 26.91443357657397 10.321517876125483 H 0.0 **** 0.06
23753 H 16.928692726714218 27.948909775690367 8.880485607468813 H 0.0 **** 0.06
23754 H 17.98493127641231 28.220126210368363 10.28827794730529 H 0.0 **** 0.06
23755 H 16.251805686956033 28.614559696926705 10.387122798763102 H 0.0 **** 0.06
23756 C 84.6854103855353 87.15898369471185 31.75984289585731 C 0.0 **** -0.24
23757 H 83.82600704745545 87.19307510760504 32.43021135005988 H 0.0 **** 0.06
23758 H 85.03546835838341 86.13025406787008 31.6708825953572 H 0.0 **** 0.06
23759 H 85.48432861577254 87.78169025884978 32.16233801608205 H 0.0 **** 0.06
23760 H 84.39427077727015 87.53103344891429 30.777177195993247 H 0.0 **** 0.06
23761 C 45.0549098962793 57.33486476587569 85.86827998180456 C 0.0 **** -0.24
23762 H 45.06863880251876 58.27015606445164 86.42674104815814 H 0.0 **** 0.06
23763 H 44.891506721342324 57.54583267459981 84.81138070518577 H 0.0 **** 0.06
23764 H 44.250439634342854 56.70018933292832 86.24131735187132 H 0.0 **** 0.06
23765 H 46.009054426913394 56.82328099152295 85.99368082200314 H 0.0 **** 0.06
23766 C 119.42749587883358 73.95352143967591 33.85347091151467 C 0.0 **** -0.24
23767 H 119.27369239928005 73.32398458021694 34.72951424584502 H 0.0 **** 0.06
23768 H 120.46258228463245 73.8649164854994 33.51999744191582 H 0.0 **** 0.06
23769 H 119.21557421007357 74.99189872356541 34.11000550724548 H 0.0 **** 0.06
23770 H 118.75974900864944 73.63233356555176 33.05366866658748 H 0.0 **** 0.06
23771 C 60.25456729987667 52.972349881469654 25.57067181079566 C 0.0 **** -0.24
23772 H 60.598442553661755 53.994357533137304 25.73314444553202 H 0.0 **** 0.06
23773 H 59.57028457275402 52.94942162675679 24.722723961042817 H 0.0 **** 0.06
23774 H 59.73836494249957 52.61826625986225 26.463126322861996 H 0.0 **** 0.06
23775 H 61.11038663104557 52.329999577340516 25.3662178596185 H 0.0 **** 0.06
23776 C 29.514116996681196 107.60141933075909 104.77895350346876 C 0.0 **** -0.24
23777 H 28.992790845626644 107.69443034366054 103.82623364690647 H 0.0 **** 0.06
23778 H 29.360028546746307 108.50637574636835 105.36700178902487 H 0.0 **** 0.06
23779 H 30.579894446632935 107.46200292189519 104.59725695969138 H 0.0 **** 0.06
23780 H 29.12342861293046 106.7417437737123 105.32452817382313 H 0.0 **** 0.06
23781 C 72.17527863860744 66.47290666981948 83.65748021240708 C 0.0 **** -0.24
23782 H 71.30256154909384 66.1063252412005 84.19922382792038 H 0.0 **** 0.06
23783 H 71.990334452061 67.49216462432142 83.31860414440382 H 0.0 **** 0.06
23784 H 72.36241810868509 65.83142361863477 82.79598240267603 H 0.0 **** 0.06
23785 H 73.04295527573402 66.46005107675072 84.31648861348182 H 0.0 **** 0.06
23786 C 84.38214001034953 90.83621672237396 79.84035526531935 C 0.0 **** -0.24
23787 H 85.11435865840986 90.48127537333048 80.56532050380326 H 0.0 **** 0.06
23788 H 84.04334092651678 89.99934173798971 79.22854594394477 H 0.0 **** 0.06
23789 H 84.8407605254126 91.59121605896405 79.20278543821254 H 0.0 **** 0.06
23790 H 83.53251632625745 91.27120528835152 80.36567384733414 H 0.0 **** 0.06
23791 C 62.38060486765719 106.2555387817026 51.226650647658175 C 0.0 **** -0.24
23792 H 63.11814551967232 106.0514374966973 50.449645724114305 H 0.0 **** 0.06
23793 H 61.55540356845108 105.54919445166823 51.13840322215873 H 0.0 **** 0.06
23794 H 62.00403974029796 107.27230154243131 51.110313292329806 H 0.0 **** 0.06
23795 H 62.84690345332738 106.15135858456807 52.2053876601082 H 0.0 **** 0.06
23796 C 109.84500924101249 22.327861402388926 17.028405173475846 C 0.0 **** -0.24
23797 H 109.03230619329659 21.98698061760161 17.670969767808515 H 0.0 **** 0.06
23798 H 109.85301071380565 21.738583682612358 16.110827962027884 H 0.0 **** 0.06
23799 H 110.794451743027 22.205302402736308 17.5486342579203 H 0.0 **** 0.06
23800 H 109.69701248835244 23.379362576673216 16.784574678959643 H 0.0 **** 0.06
23801 C 12.212863733570913 20.48944123758156 61.994736339896946 C 0.0 **** -0.24
23802 H 12.14820906488805 21.34127555893477 62.670452328174775 H 0.0 **** 0.06
23803 H 12.310203683311755 19.571800613914434 62.57579297079354 H 0.0 **** 0.06
23804 H 13.08219708571508 20.603602000201136 61.346926189818646 H 0.0 **** 0.06
23805 H 11.31087348640861 20.439502500087002 61.38507428019972 H 0.0 **** 0.06
23806 C 10.6458620047637 39.62637235321057 40.819974716033556 C 0.0 **** -0.24
23807 H 11.713200356771523 39.533295664071034 41.02174866968605 H 0.0 **** 0.06
23808 H 10.49848064914471 40.1984149492618 39.90281265463804 H 0.0 **** 0.06
23809 H 10.162837349261764 40.14090527696362 41.65030847348223 H 0.0 **** 0.06
23810 H 10.209982966291392 38.63421985073762 40.70358745863635 H 0.0 **** 0.06
23811 C 96.09584517778958 117.34055449403905 16.40692511200932 C 0.0 **** -0.24
23812 H 95.37095643197617 118.07993232804387 16.746039842511507 H 0.0 **** 0.06
23813 H 96.24270648215762 117.44304141435413 15.33169475410574 H 0.0 **** 0.06
23814 H 95.72639555671776 116.33977893946786 16.630257568108817 H 0.0 **** 0.06
23815 H 97.04421096787402 117.49978593162979 16.920036018982685 H 0.0 **** 0.06
23816 C 107.26581690719723 23.24552844839927 6.76545648003875 C 0.0 **** -0.24
23817 H 108.28055497686981 22.884351464118055 6.599872860929793 H 0.0 **** 0.06
23818 H 107.27251056984093 24.0014412107588 7.550516478443257 H 0.0 **** 0.06
23819 H 106.62991955303323 22.413016900553913 7.067501573530677 H 0.0 **** 0.06
23820 H 106.87981616212232 23.681139377535494 5.843624773066864 H 0.0 **** 0.06
23821 C 15.927362888520115 1.7982278037238189 106.17406523849735 C 0.0 **** -0.24
23822 H 15.445066638345565 2.7646637531971407 106.02729666436 H 0.0 **** 0.06
23823 H 17.008769065691475 1.9306704920961977 106.18705332268505 H 0.0 **** 0.06
23824 H 15.652618466426631 1.1284741649131433 105.35802675957743 H 0.0 **** 0.06
23825 H 15.600429338883703 1.3693872973063037 107.12067092921788 H 0.0 **** 0.06
23826 C 107.97059977627862 35.47579768323581 28.030829065304246 C 0.0 **** -0.24
23827 H 108.69317366114626 35.14104973145055 28.77595119603204 H 0.0 **** 0.06
23828 H 107.66458193067257 36.49805429669556 28.25564829173667 H 0.0 **** 0.06
23829 H 107.09886037196216 34.82282526799756 28.050816238077793 H 0.0 **** 0.06
23830 H 108.4282152865058 35.44309459612563 27.041751859852504 H 0.0 **** 0.06
23831 C 42.666600992453 69.07135368984049 94.66104131584143 C 0.0 **** -0.24
23832 H 42.360768441575686 68.86812924843383 93.63420370985202 H 0.0 **** 0.06
23833 H 42.545042983571946 68.16888421996055 95.2606650920809 H 0.0 **** 0.06
23834 H 42.0483265194911 69.86824189255131 95.07263932351208 H 0.0 **** 0.06
23835 H 43.71238345823062 69.37880126210166 94.67317253543231 H 0.0 **** 0.06
23836 C 65.78399170150877 103.50755415019967 63.42333675222571 C 0.0 **** -0.24
23837 H 66.1514269079828 104.51001963949622 63.20173915805958 H 0.0 **** 0.06
23838 H 66.62861279737297 102.85305163123368 63.64164813407319 H 0.0 **** 0.06
23839 H 65.23822778314133 103.12261224358161 62.562768614117545 H 0.0 **** 0.06
23840 H 65.1214620431382 103.54732993347022 64.28704699302261 H 0.0 **** 0.06
23841 C 47.48123259131387 112.23116486261685 115.96008469377836 C 0.0 **** -0.24
23842 H 48.15063294586622 111.43058909854699 115.64688877235596 H 0.0 **** 0.06
23843 H 46.52919476776094 111.8062378973174 116.27895177320892 H 0.0 **** 0.06
23844 H 47.313457290892586 112.91141852685914 115.12517779943624 H 0.0 **** 0.06
23845 H 47.93035014322567 112.77755325316843 116.78916385372264 H 0.0 **** 0.06
23846 C 88.37399882561013 67.18173431299451 45.86626185002663 C 0.0 **** -0.24
23847 H 88.0321730502641 68.0802673719385 45.35201517649827 H 0.0 **** 0.06
23848 H 88.95968676503298 67.46478202877339 46.74023249847926 H 0.0 **** 0.06
23849 H 88.99052854468235 66.58972905691525 45.19035655058954 H 0.0 **** 0.06
23850 H 87.51142667038735 66.59350051117602 46.179714257369255 H 0.0 **** 0.06
23851 C 23.422100704245054 99.39434939834308 25.20134521873871 C 0.0 **** -0.24
23852 H 24.219603257616825 99.78493295283971 24.56892896620363 H 0.0 **** 0.06
23853 H 23.074209272845508 100.17894906120469 25.872587350455206 H 0.0 **** 0.06
23854 H 23.80053704948375 98.55605508833207 25.786421898019285 H 0.0 **** 0.06
23855 H 22.595205474104944 99.05698452999499 24.57587868025442 H 0.0 **** 0.06
23856 C 48.78012750122849 72.6294730031068 16.290714738829536 C 0.0 **** -0.24
23857 H 48.68236999247898 72.37805259858433 17.346886310100786 H 0.0 **** 0.06
23858 H 48.089256598241036 72.02104724758905 15.708078865961056 H 0.0 **** 0.06
23859 H 49.8016911346636 72.4349397267084 15.964448491353153 H 0.0 **** 0.06
23860 H 48.54680658046766 73.68504561525577 16.146825863530182 H 0.0 **** 0.06
23861 C 50.256338429290096 68.3818301442094 67.60214112557824 C 0.0 **** -0.24
23862 H 51.14245498326491 68.92096424432685 67.93838367179694 H 0.0 **** 0.06
23863 H 49.73886868803009 68.97095003605531 66.8444584779296 H 0.0 **** 0.06
23864 H 49.59150548318279 68.21356463326913 68.449244418842 H 0.0 **** 0.06
23865 H 50.55422693829263 67.42311481990325 67.17769502997359 H 0.0 **** 0.06
23866 C 77.09346522219204 19.252309044042534 102.51526554381758 C 0.0 **** -0.24
23867 H 78.10425317465015 18.851077474617796 102.5799339510202 H 0.0 **** 0.06
23868 H 76.70469369124157 19.09657348041557 101.50830609562959 H 0.0 **** 0.06
23869 H 77.11126807552372 20.319770916483634 102.7370500952955 H 0.0 **** 0.06
23870 H 76.45388394906007 18.743068509594735 103.23516339839645 H 0.0 **** 0.06
23871 C 104.01423090529286 49.75795003391622 21.668418732882373 C 0.0 **** -0.24
23872 H 104.7565848144236 49.178686621587275 22.216086165584215 H 0.0 **** 0.06
23873 H 103.12795691783762 49.146526456471776 21.499233188540614 H 0.0 **** 0.06
23874 H 104.4301801144776 50.06789564545852 20.710535639871523 H 0.0 **** 0.06
23875 H 103.74234395220708 50.639910259670586 22.249042379017595 H 0.0 **** 0.06
23876 C 103.19299227159672 116.94321375235253 101.86287572437462 C 0.0 **** -0.24
23877 H 103.37289734583351 116.15781776475842 101.12902123149232 H 0.0 **** 0.06
23878 H 102.57746690112481 116.54947610603102 102.67284264714081 H 0.0 **** 0.06
23879 H 102.67726061864403 117.77503309256898 101.38494949881832 H 0.0 **** 0.06
23880 H 104.1462228682422 117.28892198703184 102.26606491215679 H 0.0 **** 0.06
23881 C 87.57675180100978 122.05560865190729 56.34104314725474 C 0.0 **** -0.24
23882 H 88.09905526509323 121.18314273529273 55.94989179119304 H 0.0 **** 0.06
23883 H 87.13191029592019 122.61225134661188 55.51675859470956 H 0.0 **** 0.06
23884 H 88.28368911164534 122.69405014580488 56.87103582229801 H 0.0 **** 0.06
23885 H 86.79448843967504 121.73302943709379 57.027147174738644 H 0.0 **** 0.06
23886 C 55.79430385390032 105.05766184324779 11.550635037271633 C 0.0 **** -0.24
23887 H 55.94871938414096 104.02350949074881 11.242680677546844 H 0.0 **** 0.06
23888 H 55.261547092228966 105.07804011890747 12.50235043271087 H 0.0 **** 0.06
23889 H 55.20749560124159 105.57836760795345 10.794174404750521 H 0.0 **** 0.06
23890 H 56.75980662410373 105.55048516695052 11.664681957690249 H 0.0 **** 0.06
23891 C 108.12640541860861 23.627757898043264 0.02962520374005706 C 0.0 **** -0.24
23892 H 108.96237499890128 23.931290384733245 0.6592560329139374 H 0.0 **** 0.06
23893 H 108.27377455451017 22.597703929077966 -0.29730808007836806 H 0.0 **** 0.06
23894 H 108.0720938137575 24.281176586297804 -0.8414709049573794 H 0.0 **** 0.06
23895 H 107.19879461427934 23.699904334103138 0.5977415953600129 H 0.0 **** 0.06
23896 C 74.94678279636969 100.92961486119947 71.98975826925226 C 0.0 **** -0.24
23897 H 73.87274462099268 101.07428575725592 71.87799335408755 H 0.0 **** 0.06
23898 H 75.31812581848675 101.57178138065834 72.78896456334803 H 0.0 **** 0.06
23899 H 75.44686951096682 101.18525091543941 71.05579703156803 H 0.0 **** 0.06
23900 H 75.14845793749453 99.88750051734473 72.2362718069381 H 0.0 **** 0.06
23901 C 34.9876891433894 7.700860166884979 61.23763279533051 C 0.0 **** -0.24
23902 H 34.867039506870135 6.618473697069902 61.29340363801282 H 0.0 **** 0.06
23903 H 35.155548661296656 7.994196339091019 60.20170221804227 H 0.0 **** 0.06
23904 H 35.84169221129859 8.0019709584206 61.84426544710885 H 0.0 **** 0.06
23905 H 34.08723162949857 8.186546106608589 61.61175240666381 H 0.0 **** 0.06
23906 C 12.539046990275153 0.3339623036058583 114.44214965891244 C 0.0 **** -0.24
23907 H 11.47667702752841 0.5386331663500812 114.57510466855638 H 0.0 **** 0.06
23908 H 13.10351435424377 0.8121603935390596 115.24191602809584 H 0.0 **** 0.06
23909 H 12.86613328049367 0.7280344804422043 113.4797833952741 H 0.0 **** 0.06
23910 H 12.707280402584843 -0.7430988727908101 114.47027311785554 H 0.0 **** 0.06
23911 C 94.0652753804404 79.92008006876654 60.374638972009656 C 0.0 **** -0.24
23912 H 94.09017561930494 80.35710063895976 61.37390682501164 H 0.0 **** 0.06
23913 H 93.85168264789701 78.85434450547223 60.45103881146789 H 0.0 **** 0.06
23914 H 95.03034115164891 80.06490371127137 59.89137385353562 H 0.0 **** 0.06
23915 H 93.28711382961848 80.4062230867039 59.78580476483915 H 0.0 **** 0.06
23916 C 42.05263563638047 9.764475709027295 91.47645595632613 C 0.0 **** -0.24
23917 H 41.794913720779675 10.099955944041938 92.48130748177121 H 0.0 **** 0.06
23918 H 43.01592605328864 9.254939080298186 91.49915230084042 H 0.0 **** 0.06
23919 H 42.11259918886307 10.625779950221215 90.8105201106103 H 0.0 **** 0.06
23920 H 41.28665400581036 9.07806059981553 91.11516717093969 H 0.0 **** 0.06
23921 C 84.32537141717185 81.82451798274622 89.34632490862242 C 0.0 **** -0.24
23922 H 83.73565902359366 80.95577038216132 89.64161479368758 H 0.0 **** 0.06
23923 H 84.58325086927866 81.74546952331517 88.28976837356026 H 0.0 **** 0.06
23924 H 85.23769556917605 81.86287459246006 89.94100171564116 H 0.0 **** 0.06
23925 H 83.74429351757885 82.73149668625467 89.51164945856587 H 0.0 **** 0.06
23926 C 83.34757508491245 89.62986361933301 68.67157776123113 C 0.0 **** -0.24
23927 H 82.65543794195827 90.46169788233414 68.8050322585865 H 0.0 **** 0.06
23928 H 84.02640682589754 89.85056047303198 67.84726984215357 H 0.0 **** 0.06
23929 H 82.78504660645356 88.72351547853532 68.44660685022544 H 0.0 **** 0.06
23930 H 83.92142766328249 89.48477444637768 69.58646487934024 H 0.0 **** 0.06
23931 C 88.21781128684106 33.341650262536064 63.497487940336676 C 0.0 **** -0.24
23932 H 88.71176113780785 32.372079169609805 63.43015595204047 H 0.0 **** 0.06
23933 H 88.96868697259708 34.13262628420145 63.48833114541056 H 0.0 **** 0.06
23934 H 87.64668252238661 33.393708367683786 64.42456562434077 H 0.0 **** 0.06
23935 H 87.54569931942439 33.46655750673517 62.648856819171876 H 0.0 **** 0.06
23936 C 49.18055828252722 107.40949375901687 108.7274107880854 C 0.0 **** -0.24
23937 H 49.98125595677202 107.1964032898544 108.01986873140797 H 0.0 **** 0.06
23938 H 49.40914864562359 108.32723404372587 109.268700277211 H 0.0 **** 0.06
23939 H 49.09081924254087 106.58344384392217 109.4338049019133 H 0.0 **** 0.06
23940 H 48.24033088347219 107.52980350363873 108.18786170159163 H 0.0 **** 0.06
23941 C 73.80113110389311 0.7663804891174664 86.12095333168557 C 0.0 **** -0.24
23942 H 73.77885982560872 -0.2481960306051274 86.51840721556545 H 0.0 **** 0.06
23943 H 74.36183533135573 0.7785465541887682 85.18639949397203 H 0.0 **** 0.06
23944 H 74.28161150920226 1.4272063313306056 86.8425951594366 H 0.0 **** 0.06
23945 H 72.78130131192964 1.10748864861017 85.93839474122157 H 0.0 **** 0.06
23946 C 38.1240157628217 38.83040880599253 60.80028694773003 C 0.0 **** -0.24
23947 H 38.009341166427646 39.257105964047895 59.803055033953086 H 0.0 **** 0.06
23948 H 37.37900289153271 38.047944090705215 60.94700763517267 H 0.0 **** 0.06
23949 H 37.98359797486029 39.61135401852488 61.546977308820914 H 0.0 **** 0.06
23950 H 39.121846792749125 38.405818026838574 60.900869856151814 H 0.0 **** 0.06
23951 C 95.70336883922849 44.699055847827964 122.33759018210532 C 0.0 **** -0.24
23952 H 95.27946758572554 45.6587509849193 122.6326818333524 H 0.0 **** 0.06
23953 H 95.19770849983391 43.89816936043514 122.87728972855862 H 0.0 **** 0.06
23954 H 96.76750994983328 44.683082740106876 122.57633643207598 H 0.0 **** 0.06
23955 H 95.56980757616327 44.55727231006517 121.26541533021668 H 0.0 **** 0.06
23956 C 77.18705761155377 44.32405860982544 61.231626238496005 C 0.0 **** -0.24
23957 H 77.21866507748732 43.262875160196074 61.48138384214917 H 0.0 **** 0.06
23958 H 77.48921438927138 44.91056553346618 62.09984400746609 H 0.0 **** 0.06
23959 H 76.17352327097595 44.59857496415799 60.94161078399037 H 0.0 **** 0.06
23960 H 77.8679844145538 44.52129463045247 60.40400087746505 H 0.0 **** 0.06
23961 C 56.78831117811404 112.28216158106699 114.11390295752636 C 0.0 **** -0.24
23962 H 56.01479998487818 112.92993228597399 114.52500466237149 H 0.0 **** 0.06
23963 H 57.57042624859875 112.89224176496691 113.66257349150942 H 0.0 **** 0.06
23964 H 56.35122705348337 111.63159418416268 113.3556868150286 H 0.0 **** 0.06
23965 H 57.21569709549743 111.67458185787129 114.9115014026221 H 0.0 **** 0.06
23966 C 61.11005484225717 61.413242446435106 51.69165719163415 C 0.0 **** -0.24
23967 H 60.239046514555355 61.83998704309576 51.19487591066783 H 0.0 **** 0.06
23968 H 61.203184431678096 60.36120070759105 51.42036723254972 H 0.0 **** 0.06
23969 H 60.99326777751742 61.50144000609211 52.771908141851185 H 0.0 **** 0.06
23970 H 62.00546638605158 61.94988257010192 51.37836713036113 H 0.0 **** 0.06
23971 C 9.48000435814427 81.60939268094421 60.493406741500735 C 0.0 **** -0.24
23972 H 9.118019623629294 81.48184004434859 59.47280027835052 H 0.0 **** 0.06
23973 H 9.320732443870838 80.68731303019189 61.052765057016074 H 0.0 **** 0.06
23974 H 8.936955045644083 82.42362164181074 60.972268643578616 H 0.0 **** 0.06
23975 H 10.544406227876948 81.84451517022654 60.473576636374844 H 0.0 **** 0.06
23976 C 17.920605107678824 87.61484074865214 98.34888564201674 C 0.0 **** -0.24
23977 H 17.572581517550134 88.43405261918917 97.7200330378862 H 0.0 **** 0.06
23978 H 17.142667112454745 87.3509495397737 99.06583269416927 H 0.0 **** 0.06
23979 H 18.818707995570065 87.92341466591049 98.88460339261417 H 0.0 **** 0.06
23980 H 18.149574547360913 86.75008788143404 97.72524579256606 H 0.0 **** 0.06
23981 C 121.91472238140743 103.12744370682637 89.19112837272672 C 0.0 **** -0.24
23982 H 122.33941904690411 102.59228258146612 90.04111161047001 H 0.0 **** 0.06
23983 H 120.99149099772956 102.63906470656818 88.87809013901989 H 0.0 **** 0.06
23984 H 122.62740068138251 103.12281411368593 88.36662893909141 H 0.0 **** 0.06
23985 H 121.70175887446817 104.15654762741346 89.4812780270259 H 0.0 **** 0.06
23986 C 77.67318513556262 7.833049120185851 63.234435255052325 C 0.0 **** -0.24
23987 H 77.66706510899843 8.638067875387197 63.969499534831904 H 0.0 **** 0.06
23988 H 76.83921210774344 7.9636755720823444 62.54471222468842 H 0.0 **** 0.06
23989 H 77.57591198925851 6.874533569714636 63.7444323288185 H 0.0 **** 0.06
23990 H 78.6105513362503 7.855919463559175 62.6790969318705 H 0.0 **** 0.06
23991 C 79.62817537355576 37.42278095472167 66.44922092605495 C 0.0 **** -0.24
23992 H 80.29381400047353 36.56115905596536 66.51114117945562 H 0.0 **** 0.06
23993 H 78.70091650009383 37.13057960688657 65.95566999563457 H 0.0 **** 0.06
23994 H 80.1113001740975 38.214020424495004 65.87584961140072 H 0.0 **** 0.06
23995 H 79.40835169578008 37.784008917561316 67.45364265753258 H 0.0 **** 0.06
23996 C 81.53991553926309 79.59060455027642 72.77852536300733 C 0.0 **** -0.24
23997 H 80.8981178227782 78.90784879391052 72.2204407133471 H 0.0 **** 0.06
23998 H 82.3682812777871 79.03386206580527 73.2151614426239 H 0.0 **** 0.06
23999 H 80.96206664893887 80.065648968734 73.57140656284852 H 0.0 **** 0.06
24000 H 81.92865377701358 80.3536391880302 72.10474289827121 H 0.0 **** 0.06
24001 C 66.59961196362659 1.3403269850612105 30.171083470888902 C 0.0 **** -0.24
24002 H 67.38114865899024 2.096752690088877 30.10077937671184 H 0.0 **** 0.06
24003 H 66.40741424901535 1.1129687312293015 31.21917093732486 H 0.0 **** 0.06
24004 H 66.9230088328743 0.43510402237342305 29.65598731415122 H 0.0 **** 0.06
24005 H 65.68750356387747 1.7163988676089303 29.707131572123615 H 0.0 **** 0.06
24006 C 77.49898886843306 47.4016668124645 93.69202746821651 C 0.0 **** -0.24
24007 H 77.03192168508127 46.41775695070379 93.63248040742559 H 0.0 **** 0.06
24008 H 77.8845207255298 47.55934269340207 94.69879187732602 H 0.0 **** 0.06
24009 H 76.75988800718557 48.16874351622306 93.46013439806552 H 0.0 **** 0.06
24010 H 78.31848821393538 47.45783774881062 92.97475636220395 H 0.0 **** 0.06
24011 C 116.98358961205523 14.709438012720227 106.69718830428405 C 0.0 **** -0.24
24012 H 116.79254130571294 13.66628938936887 106.44780194986632 H 0.0 **** 0.06
24013 H 117.91583954804238 14.783442739098746 107.25859152622414 H 0.0 **** 0.06
24014 H 116.16284532720118 15.094374072110526 107.30275597252532 H 0.0 **** 0.06
24015 H 117.06401627263077 15.293420218127864 105.78068438684312 H 0.0 **** 0.06
24016 C 69.77696820692088 117.83302869366109 25.00778626573708 C 0.0 **** -0.24
24017 H 69.82637074231508 117.8672415022867 23.919360332407052 H 0.0 **** 0.06
24018 H 70.34754069289909 116.9772280867916 25.369738660702843 H 0.0 **** 0.06
24019 H 68.73867859159023 117.73751074449673 25.32224772799654 H 0.0 **** 0.06
24020 H 70.19798663859873 118.75109642965285 25.4189240761418 H 0.0 **** 0.06
24021 C 38.331085563699645 113.51979542243586 46.97766926162328 C 0.0 **** -0.24
24022 H 37.256284133294905 113.668162038755 47.08511412103351 H 0.0 **** 0.06
24023 H 38.7505969042205 113.20252036515937 47.93350294121436 H 0.0 **** 0.06
24024 H 38.7967129799998 114.455511509862 46.66905523897739 H 0.0 **** 0.06
24025 H 38.51915411271488 112.7544787994295 46.22604388908974 H 0.0 **** 0.06
24026 C 53.3530284598554 100.47920777186633 121.26139966045906 C 0.0 **** -0.24
24027 H 52.592821722782304 100.13192451639125 121.9602237571976 H 0.0 **** 0.06
24028 H 53.59775992889295 101.51903213435259 121.47830271809379 H 0.0 **** 0.06
24029 H 52.97321231496367 100.40070966844999 120.2424752754929 H 0.0 **** 0.06
24030 H 54.24791593342132 99.86596566029809 121.36415478177076 H 0.0 **** 0.06
24031 C 5.387680772136267 106.39539381353367 50.83863457937092 C 0.0 **** -0.24
24032 H 4.350610157954817 106.12552030387076 51.03790564231678 H 0.0 **** 0.06
24033 H 5.684699193145114 106.00454524624615 49.86568516808777 H 0.0 **** 0.06
24034 H 6.027815092071073 105.96956236924638 51.61267519960715 H 0.0 **** 0.06
24035 H 5.487840023876725 107.48084758005811 50.84169765411159 H 0.0 **** 0.06
24036 C 6.417109997385296 6.335850437123497 11.879342974120494 C 0.0 **** -0.24
24037 H 6.770707356057528 6.646691191264836 10.895555324307814 H 0.0 **** 0.06
24038 H 6.365991865069631 5.247458518853705 11.919119051158201 H 0.0 **** 0.06
24039 H 5.425841063519812 6.753065205134817 12.056492247602414 H 0.0 **** 0.06
24040 H 7.105249447254863 6.697359544713606 12.642712038225728 H 0.0 **** 0.06
24041 C 39.7704983191006 22.868167403970162 6.984818547728359 C 0.0 **** -0.24
24042 H 39.015513544239326 22.418789170337277 6.339775667315873 H 0.0 **** 0.06
24043 H 40.07750334450742 23.828555575638475 6.569657553975269 H 0.0 **** 0.06
24044 H 40.63433713550698 22.205794394589418 7.04697693193577 H 0.0 **** 0.06
24045 H 39.354698949624876 23.018400436108152 7.980691531857765 H 0.0 **** 0.06
24046 C 36.32154784670408 35.171993231878616 110.37821841245079 C 0.0 **** -0.24
24047 H 36.62092164094136 34.528276608779066 111.20469485586415 H 0.0 **** 0.06
24048 H 35.261254656333875 35.02450967019189 110.16880452893619 H 0.0 **** 0.06
24049 H 36.90447716132567 34.92216926266104 109.49224071743583 H 0.0 **** 0.06
24050 H 36.49767329447238 36.21418065678165 110.64754612499272 H 0.0 **** 0.06
24051 C 50.4089091061179 10.504251266925081 17.434023885169115 C 0.0 **** -0.24
24052 H 50.55611510516803 10.67646538141446 16.368154388973185 H 0.0 **** 0.06
24053 H 50.93256136255525 11.27433172465885 18.0012597986898 H 0.0 **** 0.06
24054 H 50.802685577291925 9.524010852617806 17.701607364263683 H 0.0 **** 0.06
24055 H 49.34405451740059 10.543547971211893 17.664717697701928 H 0.0 **** 0.06
24056 C 108.91391710621679 34.61967657238375 92.32773900905124 C 0.0 **** -0.24
24057 H 107.94838074823085 34.75271373310861 91.84024259152386 H 0.0 **** 0.06
24058 H 108.76200368570616 34.21389362538764 93.32886374986964 H 0.0 **** 0.06
24059 H 109.4201400412712 35.582842272757404 92.39818294305971 H 0.0 **** 0.06
24060 H 109.52376257820362 33.93062452223978 91.74477175827039 H 0.0 **** 0.06
24061 C 53.92959455046876 113.720512098328 67.16736828832799 C 0.0 **** -0.24
24062 H 53.80191085484798 113.2879323557285 68.16027504906017 H 0.0 **** 0.06
24063 H 54.59437553319912 113.08800061194894 66.57929297091351 H 0.0 **** 0.06
24064 H 54.360432207314666 114.71753414139333 67.25848404534082 H 0.0 **** 0.06
24065 H 52.959555807228845 113.78668040653483 66.67386270053663 H 0.0 **** 0.06
24066 C 17.965146421943064 101.3602769339399 4.904335778805326 C 0.0 **** -0.24
24067 H 18.285973577955918 102.14153608429757 5.593460012770574 H 0.0 **** 0.06
24068 H 18.632144509298723 100.50263746015295 4.9905923772072 H 0.0 **** 0.06
24069 H 17.99343317116823 101.74247195870052 3.8838716890213583 H 0.0 **** 0.06
24070 H 16.947174930091133 101.05603762460103 5.149665484095809 H 0.0 **** 0.06
24071 C 99.63454526331651 66.49083599244909 9.934262289390574 C 0.0 **** -0.24
24072 H 99.21170475175091 65.98971965257249 9.063662248557222 H 0.0 **** 0.06
24073 H 99.23972784651625 67.50523335857247 9.995884949756231 H 0.0 **** 0.06
24074 H 100.71952973131408 66.52800533051953 9.840436742736188 H 0.0 **** 0.06
24075 H 99.36582788486825 65.94040415215773 10.835314358848862 H 0.0 **** 0.06
24076 C 90.3786372918126 61.2109335621501 92.02160276078638 C 0.0 **** -0.24
24077 H 91.03182748216 61.008540816536026 91.17320966717722 H 0.0 **** 0.06
24078 H 90.81493164341674 60.784225142115986 92.92587451505784 H 0.0 **** 0.06
24079 H 89.40106710334595 60.76228940937705 91.84303591231918 H 0.0 **** 0.06
24080 H 90.26704582118089 62.28803300583485 92.1455069682502 H 0.0 **** 0.06
24081 C 53.2471270444272 70.48715024078396 47.326972404552635 C 0.0 **** -0.24
24082 H 52.21991377145855 70.12111511740764 47.3057499465757 H 0.0 **** 0.06
24083 H 53.249907095678395 71.5692502432525 47.19031198674668 H 0.0 **** 0.06
24084 H 53.8157634247695 70.0174332529773 46.52442972976189 H 0.0 **** 0.06
24085 H 53.70109948568455 70.24019349502206 48.28625728043551 H 0.0 **** 0.06
24086 C 66.58543936372726 42.52539903617307 119.03278135937128 C 0.0 **** -0.24
24087 H 65.52494233857522 42.714263422711 118.86093104695642 H 0.0 **** 0.06
24088 H 66.92055442580437 41.71818562622205 118.380624479159 H 0.0 **** 0.06
24089 H 66.73980106109923 42.24008324516319 120.07255219840353 H 0.0 **** 0.06
24090 H 67.1551084329208 43.42898580447435 118.81523769748641 H 0.0 **** 0.06
24091 C 120.80285267492178 81.98808412546828 16.598871898379144 C 0.0 **** -0.24
24092 H 121.15410160485544 82.94977821847917 16.97120470760595 H 0.0 **** 0.06
24093 H 119.76774038792678 82.08187043009181 16.269911670002557 H 0.0 **** 0.06
24094 H 120.86475552376498 81.24609573911835 17.395625600454252 H 0.0 **** 0.06
24095 H 121.42461586163279 81.67363313745699 15.760756014959952 H 0.0 **** 0.06
24096 C 71.43184123155385 59.25931269238538 98.34496924444457 C 0.0 **** -0.24
24097 H 72.37973746052805 58.845658906941026 97.99773081012893 H 0.0 **** 0.06
24098 H 71.29100851542253 59.01042241608832 99.39749572319562 H 0.0 **** 0.06
24099 H 70.61620909018663 58.83750227145572 97.75864830515013 H 0.0 **** 0.06
24100 H 71.44405606076623 60.34282819272039 98.22595622136333 H 0.0 **** 0.06
24101 C 84.30853211889439 11.62005522105241 36.312486415809786 C 0.0 **** -0.24
24102 H 84.90813391576921 11.504521640123073 37.21527586782295 H 0.0 **** 0.06
24103 H 83.5930418554654 10.8003316476063 36.24461082211887 H 0.0 **** 0.06
24104 H 84.96007996939557 11.607552178241491 35.438976153331936 H 0.0 **** 0.06
24105 H 83.77098538850134 12.568027382515623 36.3517098902863 H 0.0 **** 0.06
24106 C 18.50586039387026 2.9076237214818548 9.435455222299424 C 0.0 **** -0.24
24107 H 18.814105001838218 3.882094417718264 9.057421863484308 H 0.0 **** 0.06
24108 H 18.63909919922689 2.1564675023149107 8.656350650500542 H 0.0 **** 0.06
24109 H 17.45651377021327 2.946067279632956 9.727963152069947 H 0.0 **** 0.06
24110 H 19.114898188684165 2.644810088984997 10.301668366850379 H 0.0 **** 0.06
24111 C 42.91264587627978 106.00337948969883 114.19332272642998 C 0.0 **** -0.24
24112 H 43.81558048657092 105.92553270279467 113.58702482646564 H 0.0 **** 0.06
24113 H 43.077374261768625 105.5170398674507 115.15433542672667 H 0.0 **** 0.06
24114 H 42.08570757211152 105.51677788829076 113.67661001730855 H 0.0 **** 0.06
24115 H 42.67329748600082 107.0548118314079 114.3536802357786 H 0.0 **** 0.06
24116 C 107.53058162177703 81.92640160597392 11.871609803698284 C 0.0 **** -0.24
24117 H 108.05483335759251 82.65925940139587 12.483932944821241 H 0.0 **** 0.06
24118 H 106.9018957554737 82.44313671256239 11.145487142652183 H 0.0 **** 0.06
24119 H 106.90896466009829 81.29826546349352 12.50910523696244 H 0.0 **** 0.06
24120 H 108.25716501487156 81.30534138264002 11.346665080487067 H 0.0 **** 0.06
24121 C 118.83087328332972 122.50671726512968 10.567461941077397 C 0.0 **** -0.24
24122 H 118.8660886973722 122.46838706461477 9.478660855141769 H 0.0 **** 0.06
24123 H 119.17255624085992 121.55537494477282 10.975374529931017 H 0.0 **** 0.06
24124 H 117.80801737250152 122.69548481869214 10.892202887378502 H 0.0 **** 0.06
24125 H 119.47860591339087 123.30863878850825 10.922706195282416 H 0.0 **** 0.06
24126 C 58.994521180211535 40.594465015724694 20.805326525414053 C 0.0 **** -0.24
24127 H 58.1361753277763 40.62438032145323 20.133830712595806 H 0.0 **** 0.06
24128 H 59.646606782043875 41.442919901609514 20.599817984580277 H 0.0 **** 0.06
24129 H 59.54449049463156 39.667067378019425 20.64996107164093 H 0.0 **** 0.06
24130 H 58.64882062384066 40.64362306643292 21.838704885344328 H 0.0 **** 0.06
24131 C 56.11301495827678 89.62147209700353 57.08252672091251 C 0.0 **** -0.24
24132 H 55.06073262306916 89.9001909767274 57.13682029904564 H 0.0 **** 0.06
24133 H 56.204672711796945 88.63721713338438 56.622882107886056 H 0.0 **** 0.06
24134 H 56.53372526603317 89.59529121480787 58.087159720793494 H 0.0 **** 0.06
24135 H 56.651260093881945 90.35551064124286 56.4818939010932 H 0.0 **** 0.06
24136 C 20.744627984184717 84.49556824780356 108.12517020965888 C 0.0 **** -0.24
24137 H 21.09917800354998 84.63791121498573 109.14650950106625 H 0.0 **** 0.06
24138 H 19.682880176824398 84.24572069101248 108.14126449999341 H 0.0 **** 0.06
24139 H 21.302008481732855 83.68479434538625 107.6566536596259 H 0.0 **** 0.06
24140 H 20.892907142883416 85.4139135013107 107.5581584410829 H 0.0 **** 0.06
24141 C 18.705394831926498 2.2047380492495563 38.06790275771243 C 0.0 **** -0.24
24142 H 18.748303590783934 2.8163213672926872 37.16680798000286 H 0.0 **** 0.06
24143 H 17.91933631291866 2.5775852644185306 38.72368551445422 H 0.0 **** 0.06
24144 H 19.664508856805554 2.2533878648332006 38.58470608723616 H 0.0 **** 0.06
24145 H 18.492076794008085 1.1709348750666493 37.795196744216014 H 0.0 **** 0.06
24146 C 94.25734437399777 49.88499547181948 25.66164286181518 C 0.0 **** -0.24
24147 H 94.01944128072674 48.821486389019014 25.680288833835988 H 0.0 **** 0.06
24148 H 94.74052511868732 50.13244344009905 24.715611632265734 H 0.0 **** 0.06
24149 H 94.92921439031025 50.12221651890499 26.48603593605364 H 0.0 **** 0.06
24150 H 93.33949480854423 50.46463466717577 25.762428448602208 H 0.0 **** 0.06
24151 C 119.0953013550246 103.34579137338434 116.45785481322112 C 0.0 **** -0.24
24152 H 119.54763246124895 104.33738474483314 116.45015578635503 H 0.0 **** 0.06
24153 H 118.09793349604873 103.39769518948032 116.02027108161076 H 0.0 **** 0.06
24154 H 119.02392555371316 102.9875898174765 117.4847668157957 H 0.0 **** 0.06
24155 H 119.71260075982127 102.66039422563512 115.87667639715913 H 0.0 **** 0.06
24156 C 103.60800239430012 31.19728704809154 68.1070854416275 C 0.0 **** -0.24
24157 H 102.72517197312203 31.423205869646978 68.70419447647208 H 0.0 **** 0.06
24158 H 103.63897917465329 30.12845517963555 67.89391404538424 H 0.0 **** 0.06
24159 H 104.50267365196976 31.48440154533168 68.65889491441325 H 0.0 **** 0.06
24160 H 103.56511047424226 31.753490686134228 67.17042704647699 H 0.0 **** 0.06
24161 C 77.73739284706463 75.39593828324865 14.810374995919226 C 0.0 **** -0.24
24162 H 77.35512385369913 74.41223463440946 14.53979115172723 H 0.0 **** 0.06
24163 H 77.92656526675299 75.42987515461905 15.88352654195985 H 0.0 **** 0.06
24164 H 77.00377175228218 76.15686061818869 14.54554981605503 H 0.0 **** 0.06
24165 H 78.6662584779601 75.58522191775137 14.272192421555065 H 0.0 **** 0.06
24166 C 29.589669405834684 13.993792814665255 101.48336836253674 C 0.0 **** -0.24
24167 H 29.414833907152115 13.048145995022892 100.97062598205522 H 0.0 **** 0.06
24168 H 29.27589198673587 13.907299506428018 102.5241574035756 H 0.0 **** 0.06
24169 H 29.01822172579824 14.783478750177423 100.99587294207168 H 0.0 **** 0.06
24170 H 30.65192319606018 14.237160272637666 101.44341393646292 H 0.0 **** 0.06
24171 C 45.83676923648795 77.7287846213828 31.939247867556332 C 0.0 **** -0.24
24172 H 45.94078440900114 78.41359787493141 32.7811004693412 H 0.0 **** 0.06
24173 H 45.58449004658826 78.2928577316851 31.041173883943088 H 0.0 **** 0.06
24174 H 45.0447634361916 77.00992159837867 32.15243785946868 H 0.0 **** 0.06
24175 H 46.77608391403726 77.1994649431978 31.784846943489697 H 0.0 **** 0.06
24176 C 102.7315464671075 43.42945394384398 4.51524959165387 C 0.0 **** -0.24
24177 H 103.24084691210902 43.506211963321846 3.5546412483582372 H 0.0 **** 0.06
24178 H 101.8495229458932 42.79781417331094 4.409604728932621 H 0.0 **** 0.06
24179 H 102.43024082113217 44.422383265221725 4.847590299709168 H 0.0 **** 0.06
24180 H 103.40722213318824 42.98994522349872 5.249553107183289 H 0.0 **** 0.06
24181 C 96.74544698295304 117.70362257653801 80.28162138484083 C 0.0 **** -0.24
24182 H 96.25331668763226 117.47304726524328 79.33666956708907 H 0.0 **** 0.06
24183 H 96.88027981766723 116.7865568824771 80.85518023250654 H 0.0 **** 0.06
24184 H 96.13037631776444 118.40078674351886 80.85027796744828 H 0.0 **** 0.06
24185 H 97.71766769632484 118.15508640766265 80.08429319250956 H 0.0 **** 0.06
24186 C 86.31188809442497 83.7117976090874 3.4710762946481335 C 0.0 **** -0.24
24187 H 86.17728241542474 82.85758575144607 2.80744194623456 H 0.0 **** 0.06
24188 H 86.72355845952902 83.37198777556526 4.421148338013776 H 0.0 **** 0.06
24189 H 85.34871739580129 84.1920461525323 3.6425716332893234 H 0.0 **** 0.06
24190 H 86.99698171785008 84.42405248583722 3.0103736881863057 H 0.0 **** 0.06
24191 C 17.905763746146135 95.07014609852203 78.32787831563226 C 0.0 **** -0.24
24192 H 17.83805700209649 94.2930584199454 77.56614627733452 H 0.0 **** 0.06
24193 H 16.948406501735406 95.15898165196961 78.84204805287439 H 0.0 **** 0.06
24194 H 18.153797319051023 96.02071020767295 77.85572649085015 H 0.0 **** 0.06
24195 H 18.681970561227786 94.80832340995696 79.0465520648358 H 0.0 **** 0.06
24196 C 28.752083531744915 26.126037249896115 4.985233622283602 C 0.0 **** -0.24
24197 H 29.661903151681486 26.72436706299166 5.044096905489198 H 0.0 **** 0.06
24198 H 28.443731223740315 26.036562919266515 3.943754717719088 H 0.0 **** 0.06
24199 H 27.960959160419776 26.61073852739679 5.558259877657747 H 0.0 **** 0.06
24200 H 28.94199747478426 25.134127987017635 5.395291956417481 H 0.0 **** 0.06
24201 C 79.13187969082799 120.08948276789593 93.39122041983364 C 0.0 **** -0.24
24202 H 78.92822500510496 121.08078148870703 93.79526955713342 H 0.0 **** 0.06
24203 H 78.23315525035207 119.69997367644282 92.91218052441761 H 0.0 **** 0.06
24204 H 79.43105924696289 119.42160744746063 94.19875138191082 H 0.0 **** 0.06
24205 H 79.93503155001272 120.15498967196471 92.65739070410649 H 0.0 **** 0.06
24206 C 56.918073751183016 23.298945012657384 87.71036323774993 C 0.0 **** -0.24
24207 H 57.764767849067226 23.104762703265806 87.05147364187366 H 0.0 **** 0.06
24208 H 56.22365626178174 22.45931799392588 87.66810217379464 H 0.0 **** 0.06
24209 H 56.40928468291358 24.208605432783656 87.39077012979183 H 0.0 **** 0.06
24210 H 57.27598633879154 23.42298107348239 88.73284688654479 H 0.0 **** 0.06
24211 C 67.95919737463367 106.54029438040487 75.16518269350965 C 0.0 **** -0.24
24212 H 68.41824896581551 106.43156111162685 74.18246765245942 H 0.0 **** 0.06
24213 H 68.52757828456294 107.25948883140381 75.75518068358528 H 0.0 **** 0.06
24214 H 67.95726367469905 105.57550624266321 75.67259007343344 H 0.0 **** 0.06
24215 H 66.93427366651343 106.89305282973189 75.05003495524167 H 0.0 **** 0.06
24216 C 47.774499361676334 120.29577985655129 13.369971173381941 C 0.0 **** -0.24
24217 H 47.46897719073037 120.83611495962961 14.26590605000277 H 0.0 **** 0.06
24218 H 48.86100571495069 120.22213191945839 13.343495291469992 H 0.0 **** 0.06
24219 H 47.42397870739421 120.83032156498352 12.486800414618841 H 0.0 **** 0.06
24220 H 47.34218571924464 119.29509342573058 13.385193952221357 H 0.0 **** 0.06
24221 C 113.24908378525865 10.545419436974782 30.781094810404852 C 0.0 **** -0.24
24222 H 112.47754261085278 11.102944475564954 30.249546875299473 H 0.0 **** 0.06
24223 H 112.98656011862576 10.478452025283502 31.837464010577662 H 0.0 **** 0.06
24224 H 114.20537336000712 11.058699781687494 30.676458725793907 H 0.0 **** 0.06
24225 H 113.32765660844959 9.54296832119681 30.361573482999745 H 0.0 **** 0.06
24226 C 28.367923230955768 41.88513538619598 2.7324137187273845 C 0.0 **** -0.24
24227 H 28.87861079328576 42.35665288910979 1.8933019626454684 H 0.0 **** 0.06
24228 H 27.606280844136023 41.200979788595895 2.3556800820984876 H 0.0 **** 0.06
24229 H 27.896946945397872 42.650942744614305 3.349248051581368 H 0.0 **** 0.06
24230 H 29.090374242183145 41.3298044064003 3.331663451450469 H 0.0 **** 0.06
24231 C 27.11109855461484 30.318968002292372 64.28011468331226 C 0.0 **** -0.24
24232 H 27.404527249385524 31.17846883089915 63.67760157759073 H 0.0 **** 0.06
24233 H 27.94388060331667 30.023891276527564 64.91983259836508 H 0.0 **** 0.06
24234 H 26.845605717234264 29.490327050569334 63.62406451456358 H 0.0 **** 0.06
24235 H 26.253898460160826 30.58324475032142 64.89768638946077 H 0.0 **** 0.06
24236 C 15.358402765390391 106.4623853909398 42.70313764265021 C 0.0 **** -0.24
24237 H 15.66328517297444 105.80417128986312 43.51685568768658 H 0.0 **** 0.06
24238 H 14.781970756292246 107.29501001696977 43.10659955187777 H 0.0 **** 0.06
24239 H 14.744620479580856 105.90405317950496 41.99601346834299 H 0.0 **** 0.06
24240 H 16.242894268191954 106.84366117315344 42.193623517343845 H 0.0 **** 0.06
24241 C 60.030875181831455 63.04934317470412 24.664986048038998 C 0.0 **** -0.24
24242 H 59.46319409033844 62.30398835210073 24.107685848488643 H 0.0 **** 0.06
24243 H 59.91348736874273 62.87061550333482 25.733836202822033 H 0.0 **** 0.06
24244 H 59.66169035577679 64.04473534207364 24.419470088637183 H 0.0 **** 0.06
24245 H 61.085299866279634 62.97635320954345 24.397177868350525 H 0.0 **** 0.06
24246 C 91.11557420792406 98.31744207469416 28.295298157156793 C 0.0 **** -0.24
24247 H 90.79350067059985 97.80417113770386 27.38864619979074 H 0.0 **** 0.06
24248 H 90.88612721196571 97.69795563796637 29.16321684480198 H 0.0 **** 0.06
24249 H 90.59159887793999 99.26975459410482 28.378231025009143 H 0.0 **** 0.06
24250 H 92.19000546491122 98.49539743492184 28.24980645467292 H 0.0 **** 0.06
24251 C 88.02259746192647 103.14414120290613 50.215863023366154 C 0.0 **** -0.24
24252 H 87.11996144940076 102.60081992699278 50.4936980386172 H 0.0 **** 0.06
24253 H 87.82831592415226 103.7369351001002 49.32167778368367 H 0.0 **** 0.06
24254 H 88.82641746632314 102.43630209989786 50.01543026344248 H 0.0 **** 0.06
24255 H 88.31520929044439 103.80468689946426 51.03252199297677 H 0.0 **** 0.06
24256 C 17.256886160218546 62.30610908037854 68.8386580965616 C 0.0 **** -0.24
24257 H 16.982023861673635 63.35188884163954 68.97485838130677 H 0.0 **** 0.06
24258 H 18.228257583127466 62.24664071771948 68.34589212499901 H 0.0 **** 0.06
24259 H 16.506092656791612 61.81036462787929 68.22362747891208 H 0.0 **** 0.06
24260 H 17.31201041706534 61.8158989443611 69.81066348235754 H 0.0 **** 0.06
24261 C 66.15598656430572 7.576428135203685 71.5705262402306 C 0.0 **** -0.24
24262 H 66.62216510686565 7.254978210890187 72.50238443350474 H 0.0 **** 0.06
24263 H 65.15446461273729 7.9538993184736455 71.7775514354646 H 0.0 **** 0.06
24264 H 66.09111076158382 6.730293273218166 70.88612133060619 H 0.0 **** 0.06
24265 H 66.75601306532693 8.365207208579335 71.11853419221998 H 0.0 **** 0.06
24266 C 12.305938334029406 37.13746748449768 62.1669859497374 C 0.0 **** -0.24
24267 H 12.383365816556648 36.367953678723154 62.93498699761397 H 0.0 **** 0.06
24268 H 12.76980921604573 36.77892981828498 61.2472931983339 H 0.0 **** 0.06
24269 H 12.816386213426682 38.03970717064806 62.50354296869549 H 0.0 **** 0.06
24270 H 11.25503274398946 37.360589763972115 61.98187506996353 H 0.0 **** 0.06
24271 C 120.9764898511129 37.02703571030476 45.35291155651154 C 0.0 **** -0.24
24272 H 121.06319451216712 36.09375858805592 45.90950230015494 H 0.0 **** 0.06
24273 H 120.30252772461536 37.70344277698132 45.881159425708404 H 0.0 **** 0.06
24274 H 120.57903301317485 36.82168653088982 44.35904240252768 H 0.0 **** 0.06
24275 H 121.95829190491888 37.48925485642437 45.263529364075566 H 0.0 **** 0.06
24276 C 76.86882053924805 42.08881474173174 95.83595819207616 C 0.0 **** -0.24
24277 H 76.98592193824965 42.531301615725425 94.84707815980587 H 0.0 **** 0.06
24278 H 75.84166162600278 42.2227846177899 96.17491358261577 H 0.0 **** 0.06
24279 H 77.5488939191975 42.57611574667155 96.53506411500285 H 0.0 **** 0.06
24280 H 77.10002751531246 41.024351150609505 95.78669588812295 H 0.0 **** 0.06
24281 C 39.29362535249328 91.20279123318835 9.621849547615966 C 0.0 **** -0.24
24282 H 39.72193668663937 91.39168608705873 8.63801866476588 H 0.0 **** 0.06
24283 H 40.081000987462346 90.87978635624265 10.30448613434605 H 0.0 **** 0.06
24284 H 38.53590084989236 90.4240372654414 9.544603966756142 H 0.0 **** 0.06
24285 H 38.83797038664636 92.11753176693205 10.000682525466743 H 0.0 **** 0.06
24286 C 49.82870628961382 25.513793636948463 36.267912704587104 C 0.0 **** -0.24
24287 H 50.58761548470608 26.242275068980618 36.55495245268857 H 0.0 **** 0.06
24288 H 48.98953541562702 26.028176436205698 35.80038551934521 H 0.0 **** 0.06
24289 H 49.482190607557584 24.983098917123165 37.154863741389036 H 0.0 **** 0.06
24290 H 50.25777857683812 24.801832567863343 35.56361484309002 H 0.0 **** 0.06
24291 C 111.95866933308665 85.66611957385058 80.63330267547653 C 0.0 **** -0.24
24292 H 112.16099095539204 86.24441968206435 79.73165080895862 H 0.0 **** 0.06
24293 H 110.9020382397909 85.74827613105106 80.88820690664994 H 0.0 **** 0.06
24294 H 112.56190777483543 86.05272499962442 81.45475733571229 H 0.0 **** 0.06
24295 H 112.21034715623027 84.62025516045475 80.45815126292595 H 0.0 **** 0.06
24296 C 44.71435300501565 30.20374467394089 50.3659654163205 C 0.0 **** -0.24
24297 H 44.334524239839006 30.531221020478085 49.397710009774244 H 0.0 **** 0.06
24298 H 45.79856818915759 30.321652057073322 50.38923591992374 H 0.0 **** 0.06
24299 H 44.45941407000067 29.155717933767335 50.52112721232055 H 0.0 **** 0.06
24300 H 44.26607269439332 30.808251281041805 51.15470914931477 H 0.0 **** 0.06
24301 C 92.58051309322681 83.73221475683184 2.489096400937486 C 0.0 **** -0.24
24302 H 92.9653921886545 84.75049339148552 2.5368016261953006 H 0.0 **** 0.06
24303 H 93.34549601999313 83.07445169236692 2.0748681110547302 H 0.0 **** 0.06
24304 H 91.69661628632267 83.70782788363937 1.8526258353460285 H 0.0 **** 0.06
24305 H 92.31698008691455 83.39612407632362 3.49180150349196 H 0.0 **** 0.06
24306 C 108.2260594936885 44.65792974358716 72.59781850675591 C 0.0 **** -0.24
24307 H 107.72162861539024 44.26035856331531 71.71756017314885 H 0.0 **** 0.06
24308 H 109.20357131240073 45.04765268087709 72.31142563031662 H 0.0 **** 0.06
24309 H 108.3532191524501 43.861848261517366 73.33231622394433 H 0.0 **** 0.06
24310 H 107.62716002056305 45.45919564389857 73.02964654665018 H 0.0 **** 0.06
24311 C 11.312976002533702 16.19338360578911 44.530544251301734 C 0.0 **** -0.24
24312 H 11.200053094540124 15.251510026057304 45.067041859656086 H 0.0 **** 0.06
24313 H 11.852274085802378 16.905869115842677 45.15464448171602 H 0.0 **** 0.06
24314 H 10.327385840367157 16.594055787035927 44.28928282137721 H 0.0 **** 0.06
24315 H 11.869593843158583 16.02163639469103 43.60919762297104 H 0.0 **** 0.06
24316 C 112.07901701970505 19.003580399821363 15.530859893353664 C 0.0 **** -0.24
24317 H 111.18911776436931 18.383981870554635 15.417285505845129 H 0.0 **** 0.06
24318 H 112.71735005102582 18.582783060619096 16.308564682971564 H 0.0 **** 0.06
24319 H 111.7847726702839 20.015483058666426 15.809554002095737 H 0.0 **** 0.06
24320 H 112.62516462000293 19.031159880728026 14.587808295760894 H 0.0 **** 0.06
24321 C 40.231479928932345 3.9817930032895106 15.632570551293668 C 0.0 **** -0.24
24322 H 40.25110353272794 3.086877314363079 15.010274017627466 H 0.0 **** 0.06
24323 H 41.25244285034057 4.318854285446406 15.813759881594365 H 0.0 **** 0.06
24324 H 39.749946588152625 3.7526480833516587 16.583236306958042 H 0.0 **** 0.06
24325 H 39.67323278158295 4.766707128000206 15.122961847423596 H 0.0 **** 0.06
24326 C 12.667959402432984 38.909258419693096 112.88008540910641 C 0.0 **** -0.24
24327 H 11.744579829565453 39.455942143056205 113.06900377499812 H 0.0 **** 0.06
24328 H 12.487746018257099 38.140412469643096 112.12828010859295 H 0.0 **** 0.06
24329 H 13.008843588173306 38.441606579161196 113.80456468866362 H 0.0 **** 0.06
24330 H 13.4309899577147 39.59882626145236 112.51940733095722 H 0.0 **** 0.06
24331 C 113.35766033148754 44.72827765453289 40.64945519310699 C 0.0 **** -0.24
24332 H 114.14211444595121 44.57508132208876 39.9082671195259 H 0.0 **** 0.06
24333 H 113.47673754467755 45.71108468335364 41.105330263572796 H 0.0 **** 0.06
24334 H 113.43053280237945 43.95943731923607 41.41837017285823 H 0.0 **** 0.06
24335 H 112.38384558195645 44.66742656928654 40.16433967434409 H 0.0 **** 0.06
24336 C 34.66178105832364 23.223255138913146 5.042676970522933 C 0.0 **** -0.24
24337 H 33.740900475072976 22.949219915483326 5.55780103057478 H 0.0 **** 0.06
24338 H 35.509878039920466 23.075203540963138 5.709948482494212 H 0.0 **** 0.06
24339 H 34.61194692841502 24.270624857670953 4.7443409496179925 H 0.0 **** 0.06
24340 H 34.78153474299779 22.59920287481532 4.156547743964865 H 0.0 **** 0.06
24341 C 76.71775498581292 96.44255125939225 99.69780897333749 C 0.0 **** -0.24
24342 H 77.40726291116215 96.89875134768616 100.40924661461594 H 0.0 **** 0.06
24343 H 75.8965402398594 97.13001299850657 99.49591343526407 H 0.0 **** 0.06
24344 H 76.3225746281787 95.51782182372705 100.11847641118271 H 0.0 **** 0.06
24345 H 77.24609643202723 96.22359307576701 98.77089869933445 H 0.0 **** 0.06
24346 C 25.25354435262031 92.90153439208552 16.3454135882057 C 0.0 **** -0.24
24347 H 25.39105321554304 92.51252144385069 17.354411298678315 H 0.0 **** 0.06
24348 H 26.138431777144575 92.6812233542214 15.747006111642861 H 0.0 **** 0.06
24349 H 25.104157391790693 93.98035569803551 16.3899136741569 H 0.0 **** 0.06
24350 H 24.38145568356623 92.43307792019755 15.890586206539098 H 0.0 **** 0.06
24351 C 28.0744757997224 22.057490328171724 41.833923642563775 C 0.0 **** -0.24
24352 H 28.933813071235 22.07300539316057 41.16425894081223 H 0.0 **** 0.06
24353 H 28.41855213391021 22.09678982072475 42.86706211878305 H 0.0 **** 0.06
24354 H 27.506539539436154 21.140499737763093 41.67478588332389 H 0.0 **** 0.06
24355 H 27.438722040462494 22.918800984797315 41.62916956632418 H 0.0 **** 0.06
24356 C 9.760521701136163 69.82496571797958 5.782472809721696 C 0.0 **** -0.24
24357 H 9.306760751192588 70.5289675559734 6.478753961699766 H 0.0 **** 0.06
24358 H 10.236814650009123 70.37434065873526 4.969182306799908 H 0.0 **** 0.06
24359 H 8.990579780083284 69.16888748100757 5.375108138792967 H 0.0 **** 0.06
24360 H 10.507755372936955 69.22754944030896 6.304406461118447 H 0.0 **** 0.06
24361 C 69.10654400867418 72.99679844591952 13.621951837854198 C 0.0 **** -0.24
24362 H 68.02860117198856 72.86935626316475 13.726397594876346 H 0.0 **** 0.06
24363 H 69.57017294195347 72.02724831088946 13.438123346354672 H 0.0 **** 0.06
24364 H 69.5112275868768 73.42533772941937 14.538511371874222 H 0.0 **** 0.06
24365 H 69.31424471239703 73.66462638308678 12.786148409532103 H 0.0 **** 0.06
24366 C 14.349077412876738 61.400381387009276 0.6890936661494891 C 0.0 **** -0.24
24367 H 14.76844735956314 61.15013443895424 1.663241707320978 H 0.0 **** 0.06
24368 H 14.242875532661657 62.48194284996211 0.6063888898654852 H 0.0 **** 0.06
24369 H 13.372232880900526 60.92916197802185 0.5822567111875685 H 0.0 **** 0.06
24370 H 15.015126700953203 61.03980218414671 -0.09514427282337579 H 0.0 **** 0.06
24371 C 94.18371516708288 56.812311009536984 14.709996926415897 C 0.0 **** -0.24
24372 H 94.28397628796696 55.74783051387962 14.924277504012508 H 0.0 **** 0.06
24373 H 93.23827525735553 57.176039021230935 15.113156290127392 H 0.0 **** 0.06
24374 H 94.20401133872514 56.96845700378904 13.631721178783721 H 0.0 **** 0.06
24375 H 95.0086790304768 57.35502109835531 15.172014824538849 H 0.0 **** 0.06
24376 C 111.15959291356711 65.297904381661 66.83142845129177 C 0.0 **** -0.24
24377 H 110.17387427701073 65.7545634115337 66.92301696022224 H 0.0 **** 0.06
24378 H 111.3702854389037 65.09471244962322 65.78128472366862 H 0.0 **** 0.06
24379 H 111.18093129231255 64.36382837946314 67.39365872254771 H 0.0 **** 0.06
24380 H 111.91329403932207 65.97818624077831 67.2286983419491 H 0.0 **** 0.06
24381 C 18.377824788609846 14.284933713504675 57.029522871845984 C 0.0 **** -0.24
24382 H 17.41704910282694 13.772872020085465 57.09784663450347 H 0.0 **** 0.06
24383 H 18.807390835817092 14.1203312450826 56.04193029187553 H 0.0 **** 0.06
24384 H 19.052577873916423 13.892533955744096 57.789748353885614 H 0.0 **** 0.06
24385 H 18.23158361417987 15.353068166309289 57.18949295287598 H 0.0 **** 0.06
24386 C 18.964599309535746 37.32700056435161 84.97800984060333 C 0.0 **** -0.24
24387 H 19.804077410125593 36.95115463931975 84.39373982871587 H 0.0 **** 0.06
24388 H 19.22509045263606 37.31521679315739 86.03686190543996 H 0.0 **** 0.06
24389 H 18.093625478074014 36.69313365404244 84.8111192733717 H 0.0 **** 0.06
24390 H 18.736061102862454 38.34761610152921 84.67043974487751 H 0.0 **** 0.06
24391 C 45.404983085783726 95.6586452281158 28.18342000128392 C 0.0 **** -0.24
24392 H 46.14935444568897 95.19502114992326 28.829820846890485 H 0.0 **** 0.06
24393 H 45.73629732864498 96.66116815504634 27.90892610780157 H 0.0 **** 0.06
24394 H 44.45366094095425 95.72242939571049 28.712031303326626 H 0.0 **** 0.06
24395 H 45.28048602822602 95.05726720828761 27.282373309240278 H 0.0 **** 0.06
24396 C 11.296116743049907 12.684315614861632 71.28565566145363 C 0.0 **** -0.24
24397 H 11.887383563995854 13.249185690171874 72.00611693963921 H 0.0 **** 0.06
24398 H 10.279180430276838 13.073927732205 71.26558165035968 H 0.0 **** 0.06
24399 H 11.278611080936116 11.633557661211789 71.57619213618136 H 0.0 **** 0.06
24400 H 11.742624675943105 12.779221407998506 70.29574016156619 H 0.0 **** 0.06
24401 C 61.15325192726294 24.260832745629855 115.53867540306172 C 0.0 **** -0.24
24402 H 61.63140460070747 24.396602806524626 114.5689766868094 H 0.0 **** 0.06
24403 H 60.5400832753096 25.13334217342316 115.76743666299416 H 0.0 **** 0.06
24404 H 61.91805539016582 24.141221330865562 116.30644290359021 H 0.0 **** 0.06
24405 H 60.52390497141761 23.371013656957615 115.51115166513722 H 0.0 **** 0.06
24406 C 112.3843894498282 103.79701489565844 10.339554272737413 C 0.0 **** -0.24
24407 H 111.96822041011353 102.7901265902783 10.384179945038511 H 0.0 **** 0.06
24408 H 113.46090003805531 103.73779035158898 10.170141457849326 H 0.0 **** 0.06
24409 H 112.1931172307697 104.31206741232151 11.280933563993418 H 0.0 **** 0.06
24410 H 111.91781482637168 104.34656767992396 9.522252025197663 H 0.0 **** 0.06
24411 C 78.04479761510561 89.09790862422827 112.94134892320031 C 0.0 **** -0.24
24412 H 77.25652592798872 88.41601018438772 113.26119642623462 H 0.0 **** 0.06
24413 H 77.72443376909683 89.62811890235264 112.04417378513423 H 0.0 **** 0.06
24414 H 78.95002055639188 88.53070737843305 112.72491118096585 H 0.0 **** 0.06
24415 H 78.2482102069448 89.81679803173984 113.73511430046659 H 0.0 **** 0.06
24416 C 8.8941653281085 85.24704336471711 95.37462362806531 C 0.0 **** -0.24
24417 H 9.033107571140079 86.09898739620658 94.70853160152399 H 0.0 **** 0.06
24418 H 9.728167940120883 84.55439345982614 95.25583408427778 H 0.0 **** 0.06
24419 H 7.961593036512454 84.74102118156623 95.1267536028696 H 0.0 **** 0.06
24420 H 8.856294452272607 85.59648413736494 96.40675594194653 H 0.0 **** 0.06
24421 C 28.484218738595814 121.24305394638252 103.92591917640917 C 0.0 **** -0.24
24422 H 28.04798528136223 120.70977850076535 103.08075123541755 H 0.0 **** 0.06
24423 H 29.419206130216708 121.70982187694703 103.61656923348627 H 0.0 **** 0.06
24424 H 28.67819626728442 120.54048620617644 104.7362298593332 H 0.0 **** 0.06
24425 H 27.789833641194264 122.00986915424909 104.26905018956074 H 0.0 **** 0.06
24426 C 70.69404214182453 28.403978402057348 110.02800934247193 C 0.0 **** -0.24
24427 H 70.91245256527549 29.419523938685394 109.6950703416671 H 0.0 **** 0.06
24428 H 69.65118143240718 28.168708531089756 109.81267280761904 H 0.0 **** 0.06
24429 H 70.87007933774711 28.32754002375676 111.10133140542644 H 0.0 **** 0.06
24430 H 71.34178975134361 27.702796993282995 109.5022529631413 H 0.0 **** 0.06
24431 C 88.47528032196436 80.52690611066359 91.54784997184339 C 0.0 **** -0.24
24432 H 88.89578419712717 79.58435747024521 91.19530528128732 H 0.0 **** 0.06
24433 H 87.41913894031268 80.57493425548952 91.28198755198264 H 0.0 **** 0.06
24434 H 89.00610331141266 81.3581505147531 91.08353129200253 H 0.0 **** 0.06
24435 H 88.58122818560472 80.58802250576227 92.63080285437493 H 0.0 **** 0.06
24436 C 32.454955772293175 9.310713487601362 111.40104264224362 C 0.0 **** -0.24
24437 H 32.53582367820846 10.346550774798516 111.7317051079176 H 0.0 **** 0.06
24438 H 31.7338722586384 9.24583306241044 110.58643279278806 H 0.0 **** 0.06
24439 H 32.121107830537994 8.689366965267851 112.2324265576232 H 0.0 **** 0.06
24440 H 33.427933880719706 8.962931230108012 111.05482277296883 H 0.0 **** 0.06
24441 C 18.72447550412573 38.3836276705469 90.24173601630395 C 0.0 **** -0.24
24442 H 17.90549456761689 38.304523534584064 89.52666056395904 H 0.0 **** 0.06
24443 H 18.413882994154694 37.95828772831581 91.19702469450829 H 0.0 **** 0.06
24444 H 18.98772114757214 39.43171440085561 90.37867388138312 H 0.0 **** 0.06
24445 H 19.589426671626263 37.83700115359642 89.86503441122878 H 0.0 **** 0.06
24446 C 106.17128625348323 67.317544110245 70.86788863650088 C 0.0 **** -0.24
24447 H 106.64838000085481 66.63813671305857 70.16088133246305 H 0.0 **** 0.06
24448 H 106.58084497535617 68.31953958233694 70.74026868593015 H 0.0 **** 0.06
24449 H 106.35829424171936 66.9741033786276 71.88447582364444 H 0.0 **** 0.06
24450 H 105.0968015632076 67.33710424264541 70.68251537707263 H 0.0 **** 0.06
24451 C 113.93478991619376 81.06509745160952 40.17505088625077 C 0.0 **** -0.24
24452 H 113.7732764036 81.40945165064414 39.153449832545874 H 0.0 **** 0.06
24453 H 112.98144494287777 80.77399288487223 40.615939325658815 H 0.0 **** 0.06
24454 H 114.377349509232 81.86866158769365 40.76346978356415 H 0.0 **** 0.06
24455 H 114.60773729157872 80.20759439323004 40.16702148500221 H 0.0 **** 0.06
24456 C 4.148674950536936 96.86976779000037 8.680730759867032 C 0.0 **** -0.24
24457 H 3.5577658954651685 97.33557181160148 9.469312541273297 H 0.0 **** 0.06
24458 H 3.6694134164342334 97.04397409863816 7.71679521492959 H 0.0 **** 0.06
24459 H 4.217687959473082 95.79736745258029 8.864485694789579 H 0.0 **** 0.06
24460 H 5.150102491885118 97.30303900012396 8.672717735401108 H 0.0 **** 0.06
24461 C 24.132265946769962 25.428878547830834 31.92613718951531 C 0.0 **** -0.24
24462 H 23.68097165691961 24.848353421442937 32.73055757220941 H 0.0 **** 0.06
24463 H 23.52664580869242 25.331373545078748 31.023648796075406 H 0.0 **** 0.06
24464 H 25.138645633915473 25.057572323070644 31.73002548927966 H 0.0 **** 0.06
24465 H 24.183240960903163 26.477732916188415 32.21795592966062 H 0.0 **** 0.06
24466 C 33.564458536813476 119.49792495794038 66.78896668254924 C 0.0 **** -0.24
24467 H 33.76335299961249 120.17008128996486 65.95332676422902 H 0.0 **** 0.06
24468 H 32.693023369824715 118.88483156764649 66.56171064133196 H 0.0 **** 0.06
24469 H 33.37416976888491 120.08316568829811 67.68775559791192 H 0.0 **** 0.06
24470 H 34.43028838076009 118.85489977601448 66.95055099446324 H 0.0 **** 0.06
24471 C 70.9238576850174 14.775817398076526 51.72297293087723 C 0.0 **** -0.24
24472 H 70.90374195121152 13.777500923742139 51.28575821392877 H 0.0 **** 0.06
24473 H 70.59331845296327 15.503148917232465 50.98141051889084 H 0.0 **** 0.06
24474 H 71.9397604539131 15.013349444257983 52.03782558373976 H 0.0 **** 0.06
24475 H 70.25887572461528 14.807192792525314 52.586114119448894 H 0.0 **** 0.06
24476 C 88.72939494160241 109.17692916318825 21.844171065675084 C 0.0 **** -0.24
24477 H 89.43669183240547 108.3476982229819 21.874359213082528 H 0.0 **** 0.06
24478 H 87.80229461746873 108.84678770358082 21.37370870623289 H 0.0 **** 0.06
24479 H 89.15679070220133 109.99788902689025 21.268468109569028 H 0.0 **** 0.06
24480 H 88.52187513099628 109.51328863342411 22.85926509161044 H 0.0 **** 0.06
24481 C 14.370593972608248 4.403268683762917 9.032906626916514 C 0.0 **** -0.24
24482 H 14.20284962812822 5.3291553579717 9.582516302614778 H 0.0 **** 0.06
24483 H 13.620707139213948 4.305495783964261 8.24797011902038 H 0.0 **** 0.06
24484 H 14.29573019706828 3.557337418183181 9.715961397443238 H 0.0 **** 0.06
24485 H 15.364919448276282 4.422619166783875 8.585725916362037 H 0.0 **** 0.06
24486 C 24.40143697840159 5.801155202874696 69.1347312991499 C 0.0 **** -0.24
24487 H 24.50705312283779 6.046708996729819 70.19201307801595 H 0.0 **** 0.06
24488 H 24.90459295731921 4.855771710926689 68.92982574123334 H 0.0 **** 0.06
24489 H 24.85072272978664 6.5905232852646805 68.53206018062329 H 0.0 **** 0.06
24490 H 23.34343812170701 5.7125881501197 68.88786407143681 H 0.0 **** 0.06
24491 C 110.02988601252196 1.6197605421458974 12.725961285850417 C 0.0 **** -0.24
24492 H 110.03711379921782 0.5466096847292476 12.537485619569708 H 0.0 **** 0.06
24493 H 111.04243232271315 1.9557739052852554 12.953261119202523 H 0.0 **** 0.06
24494 H 109.37633504524365 1.835848149638025 13.57088577176529 H 0.0 **** 0.06
24495 H 109.66408589734519 2.141526689134679 11.84106889275543 H 0.0 **** 0.06
24496 C 110.63882949251598 108.69700237013353 10.385872813442695 C 0.0 **** -0.24
24497 H 111.57332057366943 108.2919905695409 10.772553455480331 H 0.0 **** 0.06
24498 H 110.72817470985925 108.85617199339762 9.311200956648129 H 0.0 **** 0.06
24499 H 110.42342347910036 109.64628274256992 10.877122439531007 H 0.0 **** 0.06
24500 H 109.82915587735067 107.99406074781118 10.583713361963852 H 0.0 **** 0.06
24501 C 48.77354249640703 33.297356940245834 76.90125729560896 C 0.0 **** -0.24
24502 H 49.43025122049008 33.177088345594825 76.03959712431146 H 0.0 **** 0.06
24503 H 48.27395050291108 32.351132327191124 77.1114952754709 H 0.0 **** 0.06
24504 H 48.02860227048413 34.06260301745942 76.68639791767109 H 0.0 **** 0.06
24505 H 49.363509040599496 33.59650727523294 77.76743260506831 H 0.0 **** 0.06
24506 C 23.775052279119905 110.2927874386802 60.82058941360194 C 0.0 **** -0.24
24507 H 24.75677992597221 110.40551105136197 60.36022503404297 H 0.0 **** 0.06
24508 H 23.26188800075775 111.25472246679334 60.82368547557181 H 0.0 **** 0.06
24509 H 23.89310016141698 109.93929820399615 61.84495907065303 H 0.0 **** 0.06
24510 H 23.188195800450217 109.56962737732539 60.25249942187625 H 0.0 **** 0.06
24511 C 121.45695775523207 118.48629021371121 56.43536111263009 C 0.0 **** -0.24
24512 H 120.52034139618156 118.72235161219776 56.942312831695205 H 0.0 **** 0.06
24513 H 121.66562379698787 119.24977479676001 55.686131584061 H 0.0 **** 0.06
24514 H 121.3723595611209 117.51407039869613 55.9507892866678 H 0.0 **** 0.06
24515 H 122.26690056067298 118.45949951586829 57.164191702919 H 0.0 **** 0.06
24516 C 22.517055843370798 91.27743486488271 98.77904389723122 C 0.0 **** -0.24
24517 H 22.951163546801183 92.05513762761706 99.40777282917801 H 0.0 **** 0.06
24518 H 22.255437916602233 90.41634315113797 99.39560967628057 H 0.0 **** 0.06
24519 H 23.240957523795473 90.97605810033141 98.02213933702043 H 0.0 **** 0.06
24520 H 21.620567611564354 91.66148934988126 98.29187230997087 H 0.0 **** 0.06
24521 C 14.936046927132352 94.42508300247601 47.3976480249201 C 0.0 **** -0.24
24522 H 15.305691992134776 93.64588661797984 48.06433435140963 H 0.0 **** 0.06
24523 H 14.671227743160422 95.3072005330381 47.981030076942176 H 0.0 **** 0.06
24524 H 14.05475733448171 94.06158297132464 46.86818077563558 H 0.0 **** 0.06
24525 H 15.711527034975685 94.68407088141785 46.6763387673777 H 0.0 **** 0.06
24526 C 51.758933091325716 100.72725194878586 57.14690452318615 C 0.0 **** -0.24
24527 H 51.97646738764641 100.92581444120475 56.0976262592859 H 0.0 **** 0.06
24528 H 52.55871591832201 100.12103403042681 57.574767248886985 H 0.0 **** 0.06
24529 H 50.8136159337503 100.19141073122847 57.22619343151425 H 0.0 **** 0.06
24530 H 51.68901088169119 101.67029966701983 57.68781388988032 H 0.0 **** 0.06
24531 C 8.798485574915844 64.59998931289238 86.2047190968251 C 0.0 **** -0.24
24532 H 8.009796944287473 63.86016934276239 86.3385837270688 H 0.0 **** 0.06
24533 H 8.391168401476165 65.59817643221407 86.36242537916041 H 0.0 **** 0.06
24534 H 9.197651670751014 64.52553816752271 85.19262441460529 H 0.0 **** 0.06
24535 H 9.59617923868987 64.41429204728769 86.92419494246681 H 0.0 **** 0.06
24536 C 3.260509926087167 21.866608033965377 15.961177604732278 C 0.0 **** -0.24
24537 H 2.7624172315922806 21.600800316972055 16.8932360899827 H 0.0 **** 0.06
24538 H 2.5908500401720005 21.672545867787107 15.123621866742756 H 0.0 **** 0.06
24539 H 4.165741371934331 21.268648440369248 15.850563202206647 H 0.0 **** 0.06
24540 H 3.523996499211165 22.923827410117866 15.979456294744992 H 0.0 **** 0.06
24541 C 103.95365135860521 21.535050904313096 52.188493403307696 C 0.0 **** -0.24
24542 H 104.39303115069882 20.541895063971992 52.28892289080987 H 0.0 **** 0.06
24543 H 103.9568758282457 22.03279028212802 53.1589553161753 H 0.0 **** 0.06
24544 H 102.92868421088008 21.444290670475027 51.82939308941645 H 0.0 **** 0.06
24545 H 104.53738189693476 22.119646224630458 51.47749544682495 H 0.0 **** 0.06
24546 C 76.00131760789046 79.98931333327113 85.99897970549085 C 0.0 **** -0.24
24547 H 76.05572938584689 80.16958775877822 84.92525877710352 H 0.0 **** 0.06
24548 H 75.16040097024307 79.33064456691258 86.21470814979739 H 0.0 **** 0.06
24549 H 75.86351733591016 80.93738339696739 86.51893679301509 H 0.0 **** 0.06
24550 H 76.92676468447195 79.52120577172337 86.33590284745378 H 0.0 **** 0.06
24551 C 96.03799367344882 60.673361573603835 0.463639639729422 C 0.0 **** -0.24
24552 H 95.73595977312272 59.76773556771257 0.9889977553480662 H 0.0 **** 0.06
24553 H 95.33360661510989 60.87602087709245 -0.3436120258333517 H 0.0 **** 0.06
24554 H 97.03629283783042 60.53802887909523 0.049558882641832724 H 0.0 **** 0.06
24555 H 96.04300460202339 61.51183796537557 1.1601540800648138 H 0.0 **** 0.06
24556 C 26.513950150835853 93.092116031324 53.357749275115026 C 0.0 **** -0.24
24557 H 26.325684134986602 94.1619235413119 53.43957131280723 H 0.0 **** 0.06
24558 H 26.72237120932897 92.8383012373609 52.31753490186432 H 0.0 **** 0.06
24559 H 25.63555849718267 92.54219471295752 53.69630917183687 H 0.0 **** 0.06
24560 H 27.37108669392677 92.82541782735885 53.9754847403222 H 0.0 **** 0.06
24561 C 47.573613922334744 119.35674278081528 8.492942738853557 C 0.0 **** -0.24
24562 H 47.73396697198956 119.9644367473841 9.38312813215002 H 0.0 **** 0.06
24563 H 47.36952203892042 120.007485529821 7.641348568505009 H 0.0 **** 0.06
24564 H 46.724755180324905 118.69260753311508 8.655051738065708 H 0.0 **** 0.06
24565 H 48.46600093345731 118.76383847480741 8.292181585796854 H 0.0 **** 0.06
24566 C 102.34936814355456 12.469556561329199 66.38026650665091 C 0.0 **** -0.24
24567 H 103.09347265293619 13.1522088163629 66.79049754029327 H 0.0 **** 0.06
24568 H 102.59203089659056 12.250456463899383 65.34037128396656 H 0.0 **** 0.06
24569 H 101.3640816316626 12.931679783425267 66.43438397342499 H 0.0 **** 0.06
24570 H 102.34997490575591 11.54395801610329 66.95661114206604 H 0.0 **** 0.06
24571 C 88.3652317999541 19.76179633214329 40.62655189951113 C 0.0 **** -0.24
24572 H 88.36549230159508 19.039592984218586 39.81015837672851 H 0.0 **** 0.06
24573 H 87.72500144839918 19.39883665251162 41.430897922763734 H 0.0 **** 0.06
24574 H 87.98933591185403 20.718854854342254 40.26636814965832 H 0.0 **** 0.06
24575 H 89.3820782494222 19.887921507008144 40.99913061710362 H 0.0 **** 0.06
24576 C 92.47645346341403 64.00623312470657 35.51724783042479 C 0.0 **** -0.24
24577 H 93.09321750279753 64.90395852801834 35.56661770911498 H 0.0 **** 0.06
24578 H 93.0563219875234 63.19067434150244 35.08369902769968 H 0.0 **** 0.06
24579 H 91.60172849179565 64.20030755764134 34.89697737606505 H 0.0 **** 0.06
24580 H 92.15583404100306 63.73052192732212 36.5214522930377 H 0.0 **** 0.06
24581 C 93.56688005315792 24.41025637590618 22.546188591655216 C 0.0 **** -0.24
24582 H 94.0381090460371 23.797518847345735 23.315179572199355 H 0.0 **** 0.06
24583 H 93.99102109823582 25.41404761802294 22.57163750810853 H 0.0 **** 0.06
24584 H 92.49351249877336 24.463257941379624 22.731132133397217 H 0.0 **** 0.06
24585 H 93.74530604784837 23.964202746609132 21.567712501194606 H 0.0 **** 0.06
24586 C 109.58914310682141 116.36133698302541 118.34609646786805 C 0.0 **** -0.24
24587 H 109.4617985439159 117.32651395871927 118.83790535723472 H 0.0 **** 0.06
24588 H 109.28518928703372 115.56530227120271 119.02508681066905 H 0.0 **** 0.06
24589 H 110.63672437304072 116.22875506846626 118.07478542090857 H 0.0 **** 0.06
24590 H 108.97443802906264 116.32786009257694 117.44654930514571 H 0.0 **** 0.06
24591 C 113.16241453556916 84.22030811662444 37.752003708155286 C 0.0 **** -0.24
24592 H 112.77571554431334 84.87898569764951 38.53052020780254 H 0.0 **** 0.06
24593 H 112.46548981713269 83.39719901984307 37.59457920315219 H 0.0 **** 0.06
24594 H 114.1296244448087 83.82288450409305 38.059748074926176 H 0.0 **** 0.06
24595 H 113.27747620535933 84.78186440816103 36.825633697195386 H 0.0 **** 0.06
24596 C 76.89038203516941 98.20038825810582 83.16193321631567 C 0.0 **** -0.24
24597 H 75.87936007278464 98.29160364775774 83.55918563495317 H 0.0 **** 0.06
24598 H 77.59063622888254 98.05229192668801 83.98351925856883 H 0.0 **** 0.06
24599 H 77.15077223983832 99.11002107906492 82.62120576678413 H 0.0 **** 0.06
24600 H 76.93872504101108 97.34724741830672 82.48466455942454 H 0.0 **** 0.06
24601 C 62.322491587782416 97.70035871979223 120.51692673025673 C 0.0 **** -0.24
24602 H 61.80341823008319 98.11941851001143 119.65449823395696 H 0.0 **** 0.06
24603 H 61.92180417210714 96.71078413001604 120.7356384806112 H 0.0 **** 0.06
24604 H 62.17647300718921 98.35151148563492 121.37894401260655 H 0.0 **** 0.06
24605 H 63.38682853059186 97.62143807861833 120.29639666449903 H 0.0 **** 0.06
24606 C 84.7952363688554 56.73671890974862 63.21371170420628 C 0.0 **** -0.24
24607 H 83.79846352609187 56.633460617230725 63.643777761673796 H 0.0 **** 0.06
24608 H 85.12986028585425 57.76901718009793 63.31665950834908 H 0.0 **** 0.06
24609 H 84.76491250370631 56.46771648248509 62.1582813478775 H 0.0 **** 0.06
24610 H 85.48630893508584 56.075633250629465 63.73752143889508 H 0.0 **** 0.06
24611 C 4.713808686984777 47.09169023905673 84.34824813869818 C 0.0 **** -0.24
24612 H 4.984849093089821 47.88417279735049 83.65052352698075 H 0.0 **** 0.06
24613 H 3.953560076401317 47.45818408819474 85.03841584801012 H 0.0 **** 0.06
24614 H 5.5969730802348465 46.78554525143872 84.91037634352284 H 0.0 **** 0.06
24615 H 4.322427202035286 46.23828093424092 83.79510422904815 H 0.0 **** 0.06
24616 C 16.140272367307887 111.46319676526305 102.98291746845337 C 0.0 **** -0.24
24617 H 16.538518640498125 110.5395465398457 103.40412805035197 H 0.0 **** 0.06
24618 H 16.173941313339412 112.24994133102297 103.73707763811564 H 0.0 **** 0.06
24619 H 15.109108369052194 111.30393066904612 102.66889644636643 H 0.0 **** 0.06
24620 H 16.7410000227174 111.7585140609144 102.12301103406523 H 0.0 **** 0.06
24621 C 43.46371691993633 83.1462488971049 64.11404430276778 C 0.0 **** -0.24
24622 H 43.78701221407579 83.96051384802345 64.76283155001624 H 0.0 **** 0.06
24623 H 42.68308168151829 82.57289067717028 64.6128829964589 H 0.0 **** 0.06
24624 H 44.31212117565991 82.49635329060405 63.89726306084709 H 0.0 **** 0.06
24625 H 43.07451730008407 83.55753953329622 63.18272492067074 H 0.0 **** 0.06
24626 C 101.07721990268695 84.83500231864451 97.11475433737294 C 0.0 **** -0.24
24627 H 100.25166645491348 84.31999578810778 96.62304107486469 H 0.0 **** 0.06
24628 H 101.98017652798669 84.2296107881009 97.0379263731781 H 0.0 **** 0.06
24629 H 100.83246816461235 84.99148918456905 98.16592161508851 H 0.0 **** 0.06
24630 H 101.2425004610682 85.79885502026858 96.63297694639672 H 0.0 **** 0.06
24631 C 91.9825995822014 94.20188535264677 68.43196495401236 C 0.0 **** -0.24
24632 H 92.54182045187125 94.77844659509972 67.69594850500448 H 0.0 **** 0.06
24633 H 92.58171345938743 93.3508229204636 68.75789977017212 H 0.0 **** 0.06
24634 H 91.05468051711733 93.84403170137767 67.98602090587292 H 0.0 **** 0.06
24635 H 91.75250553012731 94.83445691041331 69.29019287624283 H 0.0 **** 0.06
24636 C 26.54496491489624 36.943755662423655 11.937102592210579 C 0.0 **** -0.24
24637 H 25.618760693769104 37.378888805095414 11.560618775314737 H 0.0 **** 0.06
24638 H 26.545780446791042 36.97947290336663 13.026983227487534 H 0.0 **** 0.06
24639 H 27.393724792675698 37.5087015405237 11.553380190832087 H 0.0 **** 0.06
24640 H 26.618699499273703 35.90746901696795 11.608047428294867 H 0.0 **** 0.06
24641 C 75.0303342945625 99.60905190580317 30.680014888286813 C 0.0 **** -0.24
24642 H 73.98713066215313 99.59954647794663 30.363480557360546 H 0.0 **** 0.06
24643 H 75.5596681995282 98.77976705963752 30.21120536711185 H 0.0 **** 0.06
24644 H 75.08170601321737 99.50606537768564 31.764250513126996 H 0.0 **** 0.06
24645 H 75.49259967171645 100.55071539467556 30.382089085676157 H 0.0 **** 0.06
24646 C 46.24988922648231 9.607541817025975 86.85349517023047 C 0.0 **** -0.24
24647 H 47.197404916347836 9.505929885395545 87.38257754416239 H 0.0 **** 0.06
24648 H 46.367228625199516 10.314878578530795 86.03182713304369 H 0.0 **** 0.06
24649 H 45.487322050573795 9.972114235146847 87.54076099096778 H 0.0 **** 0.06
24650 H 45.9482654157668 8.638141539112638 86.4571553031617 H 0.0 **** 0.06
24651 C 6.813133196596937 107.78344568555693 74.04192670317093 C 0.0 **** -0.24
24652 H 6.193044062634186 108.6217405639913 74.36185696969972 H 0.0 **** 0.06
24653 H 7.422970558995161 108.08804199414828 73.19012230723345 H 0.0 **** 0.06
24654 H 6.174635762528311 106.94968758829776 73.7519878752831 H 0.0 **** 0.06
24655 H 7.461846029664287 107.4775558915955 74.86252295289805 H 0.0 **** 0.06
24656 C 117.40621860342526 91.65243025454885 13.981969708806957 C 0.0 **** -0.24
24657 H 116.7806923788821 90.78469339398683 14.192898246239338 H 0.0 **** 0.06
24658 H 117.98734996086228 91.90461619969042 14.869028178213085 H 0.0 **** 0.06
24659 H 116.77431852615032 92.49778623900366 13.708651743401049 H 0.0 **** 0.06
24660 H 118.0801732680454 91.42190558742544 13.157375521939713 H 0.0 **** 0.06
24661 C 63.09517060723589 78.27854263224197 31.485498684730672 C 0.0 **** -0.24
24662 H 63.04127167328554 78.49649803874942 32.552749615364895 H 0.0 **** 0.06
24663 H 62.97980100409186 77.20522482210077 31.3288974100619 H 0.0 **** 0.06
24664 H 64.06142377955112 78.60047368416815 31.098627556317552 H 0.0 **** 0.06
24665 H 62.29915256080985 78.81045131711409 30.965933037514368 H 0.0 **** 0.06
24666 C 108.87090729620772 10.983647058803683 20.647213351799564 C 0.0 **** -0.24
24667 H 108.1681534768777 11.732415789292588 20.28290367758433 H 0.0 **** 0.06
24668 H 109.88798501556283 11.364520016702514 20.553272706376276 H 0.0 **** 0.06
24669 H 108.7681164219434 10.07152462830032 20.058107317830604 H 0.0 **** 0.06
24670 H 108.65951095222621 10.765187228610756 21.69425874321314 H 0.0 **** 0.06
24671 C 117.17747466898066 93.53309389581744 42.57750360788228 C 0.0 **** -0.24
24672 H 117.05008016702178 92.4712489784533 42.78979864083928 H 0.0 **** 0.06
24673 H 118.21629561544667 93.72810785088566 42.31306330783917 H 0.0 **** 0.06
24674 H 116.91112100482286 94.11397879523105 43.46077288306631 H 0.0 **** 0.06
24675 H 116.5308342921087 93.81715845227231 41.74632566759064 H 0.0 **** 0.06
24676 C 73.50067987763185 61.3965143902293 88.58997526606453 C 0.0 **** -0.24
24677 H 73.58198261994531 60.79733776905658 89.4973524849608 H 0.0 **** 0.06
24678 H 74.11454919551596 60.9528616255775 87.80570755058858 H 0.0 **** 0.06
24679 H 73.84594465128063 62.410365370832466 88.79247848752152 H 0.0 **** 0.06
24680 H 72.45992285004417 61.42500484565198 88.26599335323954 H 0.0 **** 0.06
24681 C 74.52103232371192 38.68455506683762 14.616678343660002 C 0.0 **** -0.24
24682 H 73.67173803861843 38.42990020027577 15.249238336105556 H 0.0 **** 0.06
24683 H 74.17293881672848 39.24778789126839 13.750914047553632 H 0.0 **** 0.06
24684 H 75.01251794828318 37.77091549672667 14.283023253636404 H 0.0 **** 0.06
24685 H 75.22801057421262 39.290234533982186 15.184216274029051 H 0.0 **** 0.06
24686 C 111.53661949762079 121.10772001635169 65.371028956077 C 0.0 **** -0.24
24687 H 112.09836303923787 122.04128923293555 65.35270400804856 H 0.0 **** 0.06
24688 H 112.2244137057639 120.27261924353876 65.50710615462992 H 0.0 **** 0.06
24689 H 111.0009820551183 120.98738010285334 64.42988183083341 H 0.0 **** 0.06
24690 H 110.8231011614225 121.12884531312139 66.19496915610196 H 0.0 **** 0.06
24691 C 93.3506448243948 115.38293824481656 58.29868601988351 C 0.0 **** -0.24
24692 H 92.75118318105581 114.63671854653722 57.776941785040584 H 0.0 **** 0.06
24693 H 93.0675011328409 115.40590333668152 59.35129535671684 H 0.0 **** 0.06
24694 H 93.17631041852209 116.36290006617935 57.85393159753968 H 0.0 **** 0.06
24695 H 94.40616463951176 115.12709321553078 58.210775123302206 H 0.0 **** 0.06
24696 C 68.78830067101237 29.71211490557522 19.06201524878383 C 0.0 **** -0.24
24697 H 67.72835307056707 29.836869264943175 19.2811031416186 H 0.0 **** 0.06
24698 H 69.05406603478713 30.321893002567677 18.19811038633853 H 0.0 **** 0.06
24699 H 68.99314941313892 28.66378397820027 18.844489621653892 H 0.0 **** 0.06
24700 H 69.37729280790938 30.025213772058947 19.923730084327566 H 0.0 **** 0.06
24701 C 43.35974410733428 120.37999930711207 11.435269954265891 C 0.0 **** -0.24
24702 H 43.3172342808449 119.77772933649638 12.343558457662255 H 0.0 **** 0.06
24703 H 42.34710329666018 120.62609502425977 11.115306470111364 H 0.0 **** 0.06
24704 H 43.8633069081566 119.81655935108932 10.649732526081863 H 0.0 **** 0.06
24705 H 43.91126496608797 121.29870928476147 11.635511956481764 H 0.0 **** 0.06
24706 C 84.08287669107318 68.71672434776548 64.21934036484197 C 0.0 **** -0.24
24707 H 83.81270734065217 67.7360450461299 63.82653531194273 H 0.0 **** 0.06
24708 H 84.04849294333741 69.45248007050137 63.41581226478814 H 0.0 **** 0.06
24709 H 85.09121044043587 68.67648191726161 64.63250471370031 H 0.0 **** 0.06
24710 H 83.38016413983172 68.99968595579523 65.00251970569767 H 0.0 **** 0.06
24711 C 66.3131010714716 39.77097014948764 81.35291802530602 C 0.0 **** -0.24
24712 H 65.5896123054429 39.22647406498126 80.74600109747647 H 0.0 **** 0.06
24713 H 67.21235241662515 39.16782909892332 81.47275102389048 H 0.0 **** 0.06
24714 H 65.88140450273059 39.98022194663746 82.33112905989694 H 0.0 **** 0.06
24715 H 66.56729040704326 40.709506444945504 80.85956969521084 H 0.0 **** 0.06
24716 C 115.89701722960012 67.8723504893326 42.638446603484695 C 0.0 **** -0.24
24717 H 115.80431039692128 67.54964125162482 43.67550992249438 H 0.0 **** 0.06
24718 H 115.93997819608992 68.96132677702275 42.598783077086885 H 0.0 **** 0.06
24719 H 115.03553738019454 67.52151949691199 42.07100923816907 H 0.0 **** 0.06
24720 H 116.80887765312981 67.45716851901392 42.20921399888791 H 0.0 **** 0.06
24721 C 24.79330657876173 16.770267329780467 52.347260392423976 C 0.0 **** -0.24
24722 H 25.315730025207642 17.63658237426705 51.939547010236595 H 0.0 **** 0.06
24723 H 24.674019807329927 16.018457590777842 51.56635324286637 H 0.0 **** 0.06
24724 H 23.811979452021603 17.07570594115589 52.71058870854722 H 0.0 **** 0.06
24725 H 25.371944240980525 16.350923635988437 53.16964739961807 H 0.0 **** 0.06
24726 C 61.496718176445505 93.10052744140506 87.12007664661004 C 0.0 **** -0.24
24727 H 61.21712426511416 92.04752124996523 87.08502894518304 H 0.0 **** 0.06
24728 H 62.49924695097351 93.22473116443442 86.71000268853362 H 0.0 **** 0.06
24729 H 61.480911369593535 93.44670614278974 88.15373162028561 H 0.0 **** 0.06
24730 H 60.78792034260932 93.68423839962088 86.53171677146295 H 0.0 **** 0.06
24731 C 8.729460511609261 8.03497614259344 23.478245677086477 C 0.0 **** -0.24
24732 H 9.13305383736514 8.60633237027822 22.64198396616331 H 0.0 **** 0.06
24733 H 9.55023735503454 7.634487166976353 24.074065395226683 H 0.0 **** 0.06
24734 H 8.122022083107765 7.214222196756971 23.097129379805864 H 0.0 **** 0.06
24735 H 8.113658744205281 8.686342724503493 24.098565674051713 H 0.0 **** 0.06
24736 C 90.94180623774682 46.91009503342667 34.197855846303746 C 0.0 **** -0.24
24737 H 91.08061364522811 46.2276940436889 35.03656887070472 H 0.0 **** 0.06
24738 H 91.25509830731332 46.42116301037771 33.276087645440846 H 0.0 **** 0.06
24739 H 91.54149463752995 47.806671816865645 34.356219506537435 H 0.0 **** 0.06
24740 H 89.8900014463049 47.18566707565719 34.12485701558184 H 0.0 **** 0.06
24741 C 54.65230452190417 72.72443734500666 11.796154447403751 C 0.0 **** -0.24
24742 H 55.12501914446642 73.6975172672644 11.662916017195414 H 0.0 **** 0.06
24743 H 53.609409958293924 72.86428285515046 12.081337396713877 H 0.0 **** 0.06
24744 H 55.172122468844066 72.17145798952225 12.578515145934034 H 0.0 **** 0.06
24745 H 54.702001015018 72.16573784014827 10.861791977226233 H 0.0 **** 0.06
24746 C 116.42220991796106 110.92090774002759 110.41546775716941 C 0.0 **** -0.24
24747 H 116.14485228983156 110.0005128563671 110.92897833504938 H 0.0 **** 0.06
24748 H 115.83574358624756 111.01640452179961 109.50110853239576 H 0.0 **** 0.06
24749 H 117.48296841940737 110.8926593171119 110.16596111174377 H 0.0 **** 0.06
24750 H 116.22478580996031 111.77274974912325 111.06558082060212 H 0.0 **** 0.06
24751 C 28.237523022889405 64.93248822239528 59.479559543502184 C 0.0 **** -0.24
24752 H 27.395313893238608 65.45310233286813 59.9374262975848 H 0.0 **** 0.06
24753 H 28.150969536151948 64.9861775774105 58.39408955083845 H 0.0 **** 0.06
24754 H 28.23379554241275 63.88886537850892 59.79483342476362 H 0.0 **** 0.06
24755 H 29.16914050540305 65.4041774478616 59.79403901276229 H 0.0 **** 0.06
24756 C 18.453427672253667 74.53802859068861 17.782116695022864 C 0.0 **** -0.24
24757 H 19.252933184142194 75.09066623667101 17.28783869249486 H 0.0 **** 0.06
24758 H 18.174490854208386 75.04935693690626 18.70228058476721 H 0.0 **** 0.06
24759 H 18.79874332918436 73.5302958127852 18.015403932429763 H 0.0 **** 0.06
24760 H 17.589130928726718 74.48200313819751 17.120406477728068 H 0.0 **** 0.06
24761 C 66.41899421544068 102.46573652794748 6.347554317962732 C 0.0 **** -0.24
24762 H 66.28731489587784 102.01309184132776 7.32938595771671 H 0.0 **** 0.06
24763 H 66.06710466209864 101.77597675123124 5.579753967613286 H 0.0 **** 0.06
24764 H 67.47534720802636 102.68202498905373 6.185317346865219 H 0.0 **** 0.06
24765 H 65.84668778527433 103.39191595402855 6.294430375096596 H 0.0 **** 0.06
24766 C 116.91736481781143 110.77403543565762 56.924314692241516 C 0.0 **** -0.24
24767 H 116.22554818378666 111.1004152277504 57.70094981641703 H 0.0 **** 0.06
24768 H 117.93370901306926 110.7842790938254 57.31573591218183 H 0.0 **** 0.06
24769 H 116.8486753098698 111.44914648328623 56.07114298016824 H 0.0 **** 0.06
24770 H 116.65858939733394 109.76282884432186 56.60973614784529 H 0.0 **** 0.06
24771 C 49.16721163956784 64.33033694446354 83.74798204509233 C 0.0 **** -0.24
24772 H 48.77789440879354 65.29730614047759 83.42986291660554 H 0.0 **** 0.06
24773 H 48.34513959785459 63.618942569370454 83.83493493566189 H 0.0 **** 0.06
24774 H 49.659023009398545 64.4377421787801 84.71523892474534 H 0.0 **** 0.06
24775 H 49.885388482936854 63.968670311165404 83.01303693117958 H 0.0 **** 0.06
24776 C 87.69749670713608 11.560160034078592 32.01820797231352 C 0.0 **** -0.24
24777 H 88.68437944766023 11.446123663560343 32.46756121192681 H 0.0 **** 0.06
24778 H 87.75758110430823 12.25482388777715 31.181112961244736 H 0.0 **** 0.06
24779 H 87.00188268950882 11.946464024156228 32.76362633226256 H 0.0 **** 0.06
24780 H 87.34630522093414 10.591434606957364 31.662191485625414 H 0.0 **** 0.06
24781 C 49.741107560609564 91.28061000727641 118.21215748693037 C 0.0 **** -0.24
24782 H 50.480338209443836 91.79181004653813 117.59568714599229 H 0.0 **** 0.06
24783 H 49.04332984688067 92.01139061912352 118.62196857990443 H 0.0 **** 0.06
24784 H 50.24446367341196 90.76119979559934 119.02787361989775 H 0.0 **** 0.06
24785 H 49.195730433382764 90.55965058875054 117.60338707097448 H 0.0 **** 0.06
24786 C 47.543709406336795 119.45558920560745 109.8909494596015 C 0.0 **** -0.24
24787 H 47.900738672462175 118.90820923559764 110.76364438536373 H 0.0 **** 0.06
24788 H 48.0557879744034 119.09203786129027 108.9995740414169 H 0.0 **** 0.06
24789 H 47.749309062123764 120.51862332583377 110.02051189773266 H 0.0 **** 0.06
24790 H 46.46966138807352 119.30456447121568 109.78125200782188 H 0.0 **** 0.06
24791 C 69.1981579213707 118.97578837817628 100.4010526609558 C 0.0 **** -0.24
24792 H 68.42491080320397 119.1863808354461 99.66274595041915 H 0.0 **** 0.06
24793 H 69.3248187087197 117.89746670387211 100.49790071841144 H 0.0 **** 0.06
24794 H 68.90387453752729 119.39441758699374 101.36437716586255 H 0.0 **** 0.06
24795 H 70.13816349328789 119.42570191184049 100.08175427460483 H 0.0 **** 0.06
24796 C 83.60550524881091 38.444564879146526 29.16486112566858 C 0.0 **** -0.24
24797 H 82.75055186820305 38.470291317239685 29.841551657031772 H 0.0 **** 0.06
24798 H 83.31410216395182 37.967054352843206 28.229483097671178 H 0.0 **** 0.06
24799 H 84.4152279714724 37.87757861892868 29.625090273594566 H 0.0 **** 0.06
24800 H 83.94147755404089 39.46179402775766 28.965806984059526 H 0.0 **** 0.06
24801 C 71.86427639637381 54.01486482459158 48.3208816993019 C 0.0 **** -0.24
24802 H 70.95395736869932 54.58113567471542 48.517532955122746 H 0.0 **** 0.06
24803 H 71.7105005081481 52.97249870348582 48.60136523934133 H 0.0 **** 0.06
24804 H 72.68509655309654 54.43119286903717 48.90539208725015 H 0.0 **** 0.06
24805 H 72.10721424895505 54.07340474974493 47.259853229840054 H 0.0 **** 0.06
24806 C 81.12027581592196 95.18016398671833 19.936991410341165 C 0.0 **** -0.24
24807 H 81.41983147785893 96.21909095887028 20.0772137978025 H 0.0 **** 0.06
24808 H 81.06509526987742 94.9593582319635 18.870633074394988 H 0.0 **** 0.06
24809 H 80.14291099829401 95.01876380130605 20.391840975426618 H 0.0 **** 0.06
24810 H 81.85330383333641 94.5236467436687 20.4060512986716 H 0.0 **** 0.06
24811 C 79.27531459564673 75.94720085361632 8.771249591912294 C 0.0 **** -0.24
24812 H 78.53390665251922 76.2861713344519 8.047881504452903 H 0.0 **** 0.06
24813 H 80.27454591574178 76.18142086301862 8.404189811189667 H 0.0 **** 0.06
24814 H 79.18180603141042 74.86932412070607 8.90811848017438 H 0.0 **** 0.06
24815 H 79.10908272814734 76.4504931965657 9.724190285043676 H 0.0 **** 0.06
24816 C 14.547801089392891 104.23664137258811 59.86848067623484 C 0.0 **** -0.24
24817 H 14.421614564922567 104.7215067418627 60.83652389071662 H 0.0 **** 0.06
24818 H 15.591654256054156 104.3039501727286 59.561776864820246 H 0.0 **** 0.06
24819 H 13.91896676147751 104.73404006072784 59.129372349408385 H 0.0 **** 0.06
24820 H 14.257503310692716 103.1886384657212 59.94687245404654 H 0.0 **** 0.06
24821 C 70.79715949772921 99.95037516566856 82.6305583535779 C 0.0 **** -0.24
24822 H 71.19472851065044 99.9384115419777 81.615370725508 H 0.0 **** 0.06
24823 H 69.83972535304048 100.47055740312723 82.63929822998622 H 0.0 **** 0.06
24824 H 71.49760731685004 100.46587831424569 83.28811863370672 H 0.0 **** 0.06
24825 H 70.65895404490689 98.926198558393 82.97767315113114 H 0.0 **** 0.06
24826 C 22.950901484630805 89.82857344381006 79.16375335630414 C 0.0 **** -0.24
24827 H 23.24511019385369 90.21251942992717 78.18652416544438 H 0.0 **** 0.06
24828 H 21.863623512068244 89.83315053780305 79.24323802474376 H 0.0 **** 0.06
24829 H 23.375057588584895 90.46078910704864 79.94353669770456 H 0.0 **** 0.06
24830 H 23.320589843885813 88.81048628654887 79.28017547494409 H 0.0 **** 0.06
24831 C 113.54269905449684 97.83790524105021 5.4791923702227905 C 0.0 **** -0.24
24832 H 113.23643926060029 97.1249819804415 6.244174360152186 H 0.0 **** 0.06
24833 H 112.6688829194751 98.15975593798197 4.911884985257473 H 0.0 **** 0.06
24834 H 114.25782615119816 97.3633272815539 4.806479813001914 H 0.0 **** 0.06
24835 H 114.00760306593808 98.70294037384238 5.952957767136098 H 0.0 **** 0.06
24836 C 68.29934570792193 12.759312878291695 106.7798856812218 C 0.0 **** -0.24
24837 H 67.6169205093056 13.605523687365377 106.69357631574198 H 0.0 **** 0.06
24838 H 68.69090133712402 12.7105811623548 107.79656931288599 H 0.0 **** 0.06
24839 H 69.12303631289947 12.884714753308202 106.07795960337111 H 0.0 **** 0.06
24840 H 67.76452265919721 11.837415467519463 106.55127989690592 H 0.0 **** 0.06
24841 C 9.653150818221405 59.28515748014249 32.31660998955084 C 0.0 **** -0.24
24842 H 10.527083733921245 58.743528178866114 31.954602956822534 H 0.0 **** 0.06
24843 H 8.820717796200142 58.59143585425298 32.439152881861965 H 0.0 **** 0.06
24844 H 9.380514658283317 60.05667330664568 31.595946386645345 H 0.0 **** 0.06
24845 H 9.884400349537628 59.74913040129158 33.27501484473777 H 0.0 **** 0.06
24846 C 19.737804180127398 119.17692778452425 118.59345966409323 C 0.0 **** -0.24
24847 H 19.805968961056095 119.83261939936665 119.46194238645994 H 0.0 **** 0.06
24848 H 19.222526028017256 119.6976236198937 117.78577627847228 H 0.0 **** 0.06
24849 H 19.18250222106414 118.2779991947856 118.85968364820985 H 0.0 **** 0.06
24850 H 20.74126485790734 118.90234154522165 118.26724619060396 H 0.0 **** 0.06
24851 C 74.00345598678729 102.22887431119815 92.76203710947453 C 0.0 **** -0.24
24852 H 74.28236105883371 101.36484928510527 93.36477155939818 H 0.0 **** 0.06
24853 H 72.91838492100936 102.34205215470664 92.76923475225172 H 0.0 **** 0.06
24854 H 74.3473309861609 102.08474267341447 91.7379842968866 H 0.0 **** 0.06
24855 H 74.46502113683931 103.1257811064373 93.17702750818339 H 0.0 **** 0.06
24856 C 37.10384274927557 80.22181259528301 116.957687349864 C 0.0 **** -0.24
24857 H 36.697543291859546 79.84245063173904 116.02041932777902 H 0.0 **** 0.06
24858 H 36.50357754284394 79.85316081162486 117.79018343909415 H 0.0 **** 0.06
24859 H 37.08122524422362 81.31188254246754 116.94856982366572 H 0.0 **** 0.06
24860 H 38.13286013175602 79.88140469237567 117.07107071685442 H 0.0 **** 0.06
24861 C 55.899390224067815 20.959889006568602 76.12063184401666 C 0.0 **** -0.24
24862 H 56.603746579801395 21.61419522318748 76.6349825672458 H 0.0 **** 0.06
24863 H 56.44619336471703 20.289611210164622 75.45594075770092 H 0.0 **** 0.06
24864 H 55.20455757488912 21.562802836776036 75.53664418180747 H 0.0 **** 0.06
24865 H 55.34649508872815 20.37408013077245 76.85399054227233 H 0.0 **** 0.06
24866 C 59.28829776217128 18.56389623647865 118.6563679905512 C 0.0 **** -0.24
24867 H 58.871543649138346 19.46406839311344 119.10907128533056 H 0.0 **** 0.06
24868 H 58.89912302784262 18.45373218402236 117.64472626734198 H 0.0 **** 0.06
24869 H 59.00512334072721 17.695616521665425 119.25141817115795 H 0.0 **** 0.06
24870 H 60.374225582156214 18.64339658829649 118.62258167729058 H 0.0 **** 0.06
24871 C 12.92637754694482 8.403864257487697 110.49887724000277 C 0.0 **** -0.24
24872 H 12.56719413825624 7.674948912770475 109.77357679672139 H 0.0 **** 0.06
24873 H 12.35206845923858 9.325262081565143 110.40273542983954 H 0.0 **** 0.06
24874 H 13.980570886194641 8.612145215531825 110.31250489891534 H 0.0 **** 0.06
24875 H 12.807072041487913 8.003865818993319 111.50548021047474 H 0.0 **** 0.06
24876 C 66.65772986149119 74.82735728527715 32.0019022461089 C 0.0 **** -0.24
24877 H 66.44184782896261 73.93986409496318 32.59692403167884 H 0.0 **** 0.06
24878 H 67.60198729376049 74.69157334626155 31.475395165200496 H 0.0 **** 0.06
24879 H 66.7276117755369 75.69547611988543 32.6576997476451 H 0.0 **** 0.06
24880 H 65.85694190631966 74.98255795297234 31.278852776626195 H 0.0 **** 0.06
24881 C 47.718660607980496 16.98239922769835 38.62871796351329 C 0.0 **** -0.24
24882 H 47.38723067462223 15.99635182943831 38.30132687542476 H 0.0 **** 0.06
24883 H 48.54778365027994 16.872033388033287 39.32879123237492 H 0.0 **** 0.06
24884 H 46.89327817711094 17.497950258341632 39.11954899252145 H 0.0 **** 0.06
24885 H 48.046885590536874 17.55964877322461 37.764390799183374 H 0.0 **** 0.06
24886 C 61.297323151732314 84.04770944278653 1.7506707428579489 C 0.0 **** -0.24
24887 H 61.849838679406645 83.95055641226418 0.8158466751277587 H 0.0 **** 0.06
24888 H 61.207437620639524 85.10219186746428 2.0116104608947722 H 0.0 **** 0.06
24889 H 61.82834057935656 83.52013792167162 2.543150978444814 H 0.0 **** 0.06
24890 H 60.30336487717901 83.61686722426592 1.6312218163641887 H 0.0 **** 0.06
24891 C 39.46573282991932 81.93297358345512 83.5757620128224 C 0.0 **** -0.24
24892 H 39.363277807223085 81.98313103695065 84.65998124890484 H 0.0 **** 0.06
24893 H 38.494478156947395 81.72156323629349 83.12869362520766 H 0.0 **** 0.06
24894 H 40.16708503069637 81.14036798096342 83.31386582690027 H 0.0 **** 0.06
24895 H 39.838858100604824 82.88643276782358 83.20200776269084 H 0.0 **** 0.06
24896 C 73.10275843838471 56.82527580223061 21.98756982241099 C 0.0 **** -0.24
24897 H 73.77186456872317 56.85208942066467 22.84621003273071 H 0.0 **** 0.06
24898 H 73.62543002561009 56.39359294527097 21.133506885783092 H 0.0 **** 0.06
24899 H 72.78277561530251 57.83774957484425 21.743490072748386 H 0.0 **** 0.06
24900 H 72.23071468667837 56.21588990989022 22.225409419302096 H 0.0 **** 0.06
24901 C 105.50772005705971 16.62606696787402 120.88961185396823 C 0.0 **** -0.24
24902 H 105.65747395634259 15.638628781013786 121.32436883811633 H 0.0 **** 0.06
24903 H 105.58166663231128 17.381935150107463 121.67129293283602 H 0.0 **** 0.06
24904 H 104.5214174544314 16.67473349939654 120.42800175678416 H 0.0 **** 0.06
24905 H 106.27099083852494 16.809326419089288 120.13267997260411 H 0.0 **** 0.06
24906 C 104.67777862537335 76.03395585900157 107.18531071288979 C 0.0 **** -0.24
24907 H 104.64567722707233 75.09702133177512 106.6297539753495 H 0.0 **** 0.06
24908 H 104.10736229682848 75.92721265964767 108.1090679004754 H 0.0 **** 0.06
24909 H 104.2453926276938 76.83026132764942 106.58053388869888 H 0.0 **** 0.06
24910 H 105.71318541111523 76.27931016931089 107.42426939126184 H 0.0 **** 0.06
24911 C 98.0038911681576 17.05518560047844 91.37698399154436 C 0.0 **** -0.24
24912 H 99.05108224972332 17.16545802207341 91.09461546808947 H 0.0 **** 0.06
24913 H 97.47244350178826 17.984080447767496 91.17015588089146 H 0.0 **** 0.06
24914 H 97.93601721561151 16.826345851599 92.44059888110542 H 0.0 **** 0.06
24915 H 97.55608214869275 16.244038817230745 90.80141453424761 H 0.0 **** 0.06
24916 C 18.49685597288189 38.618303860738195 23.838173595250304 C 0.0 **** -0.24
24917 H 17.61675947984139 39.19831854568207 24.116008549093436 H 0.0 **** 0.06
24918 H 19.371207688701418 39.01672937308496 24.352630887952316 H 0.0 **** 0.06
24919 H 18.648519765068357 38.68297989543993 22.76096832076135 H 0.0 **** 0.06
24920 H 18.34947934444307 37.576861011882215 24.12281197768838 H 0.0 **** 0.06
24921 C 10.865052050182985 34.35715190962864 71.31208051550018 C 0.0 **** -0.24
24922 H 10.162318595497432 34.77546888252638 72.03270644636598 H 0.0 **** 0.06
24923 H 10.616256506052487 33.31089580754954 71.12812616642489 H 0.0 **** 0.06
24924 H 11.877406961263738 34.42549133255062 71.7105606260059 H 0.0 **** 0.06
24925 H 10.803600399261033 34.915410827521214 70.37860543168551 H 0.0 **** 0.06
24926 C 72.43856308765197 42.066461825920385 55.544377463495124 C 0.0 **** -0.24
24927 H 71.84175072062456 42.483664991821286 56.355330380819936 H 0.0 **** 0.06
24928 H 73.21558829553231 41.42372382905222 55.95882390525193 H 0.0 **** 0.06
24929 H 72.90053252672246 42.87655860142877 54.979715968643205 H 0.0 **** 0.06
24930 H 71.7968968589172 41.48275930013136 54.885052135129285 H 0.0 **** 0.06
24931 C 75.51705745374099 46.3520831427775 81.532533418631 C 0.0 **** -0.24
24932 H 75.3579199377948 46.107836807683285 82.58169640670758 H 0.0 **** 0.06
24933 H 76.57407660063211 46.56400616589151 81.36466319691544 H 0.0 **** 0.06
24934 H 74.92386753802876 47.22796516694231 81.26880332876743 H 0.0 **** 0.06
24935 H 75.21401743102263 45.5078471889756 80.91255956885192 H 0.0 **** 0.06
24936 C 75.30973017477626 47.130391209183216 101.9140945621553 C 0.0 **** -0.24
24937 H 75.98372204381275 46.45671024652202 102.44184068295758 H 0.0 **** 0.06
24938 H 74.47103239385928 47.38669166088913 102.56156908085694 H 0.0 **** 0.06
24939 H 74.93761639848188 46.640076369675015 101.0140990802519 H 0.0 **** 0.06
24940 H 75.84734415891245 48.03824438414276 101.63733827675432 H 0.0 **** 0.06
24941 C 95.82557611149315 103.27492199206563 23.669231737744383 C 0.0 **** -0.24
24942 H 96.78750593126105 102.97190413039277 24.083177806082887 H 0.0 **** 0.06
24943 H 95.98481545364191 104.01841133652903 22.887478822332554 H 0.0 **** 0.06
24944 H 95.20949512462275 103.7036649674688 24.458934686208437 H 0.0 **** 0.06
24945 H 95.3218901904468 102.40553861237703 23.247408166164092 H 0.0 **** 0.06
24946 C 113.9308568785282 117.18927299378454 96.98271778916788 C 0.0 **** -0.24
24947 H 113.60633003606185 117.87339024147255 97.76623932751679 H 0.0 **** 0.06
24948 H 114.93332486551176 117.46505478740467 96.65184833091519 H 0.0 **** 0.06
24949 H 113.24161454802416 117.24774228696675 96.14095213190163 H 0.0 **** 0.06
24950 H 113.9440540159315 116.1712732600463 97.37131201639562 H 0.0 **** 0.06
24951 C 66.75312838754874 110.83005656958579 119.5254105881386 C 0.0 **** -0.24
24952 H 67.14064862185938 111.53106075426905 120.26597890836395 H 0.0 **** 0.06
24953 H 65.67737320978847 110.96975313208983 119.42339713202283 H 0.0 **** 0.06
24954 H 66.95939640445928 109.80977792392437 119.84953270333796 H 0.0 **** 0.06
24955 H 67.23725161875925 111.01248577288627 118.5657703234241 H 0.0 **** 0.06
24956 C 97.09895454394223 67.5114793324251 53.58784956849462 C 0.0 **** -0.24
24957 H 97.32725303129877 67.71108083261683 54.634232912599 H 0.0 **** 0.06
24958 H 96.64847613141325 68.39733311741008 53.13908743370368 H 0.0 **** 0.06
24959 H 96.40196170104687 66.67652759002479 53.52085213105124 H 0.0 **** 0.06
24960 H 98.01786630778213 67.26191433080893 53.05620055099109 H 0.0 **** 0.06
24961 C 22.58188949764405 59.295750138201214 12.076492965271715 C 0.0 **** -0.24
24962 H 23.62521718220963 59.1041005868054 11.825714329905704 H 0.0 **** 0.06
24963 H 22.41548529260271 59.07165293872484 13.130725521404262 H 0.0 **** 0.06
24964 H 21.938527775284967 58.66296530234888 11.464769826114548 H 0.0 **** 0.06
24965 H 22.348513741542916 60.34361385637092 11.88634948394439 H 0.0 **** 0.06
24966 C 114.2643088007796 60.987968091252405 81.15864168197305 C 0.0 **** -0.24
24967 H 114.62316866769225 62.01633748069822 81.20503289548213 H 0.0 **** 0.06
24968 H 113.5714961241273 60.808383814630425 81.97954368674561 H 0.0 **** 0.06
24969 H 115.11016154403276 60.305362526113505 81.23980141842031 H 0.0 **** 0.06
24970 H 113.75550776659962 60.82368886875529 80.20930195423085 H 0.0 **** 0.06
24971 C 91.38839009497275 69.590456853922 61.52686355270808 C 0.0 **** -0.24
24972 H 91.87201743666611 68.81292879199484 62.1178828558933 H 0.0 **** 0.06
24973 H 92.06648401057083 70.43808194013428 61.41597792870974 H 0.0 **** 0.06
24974 H 90.47822881544306 69.91734196184672 62.03064599880946 H 0.0 **** 0.06
24975 H 91.13687667934272 69.19518425501829 60.54267266419518 H 0.0 **** 0.06
24976 C 56.59842608426959 104.97186165477552 18.255917975549067 C 0.0 **** -0.24
24977 H 55.94217510482906 104.86507840735592 19.11993368511486 H 0.0 **** 0.06
24978 H 56.28025706769682 105.82998211276629 17.661984468155595 H 0.0 **** 0.06
24979 H 56.54558579670396 104.06891451709978 17.646359457612903 H 0.0 **** 0.06
24980 H 57.62291000867742 105.12261821610133 18.593035398378873 H 0.0 **** 0.06
24981 C 12.18903534554778 77.74585811322001 107.41061195454287 C 0.0 **** -0.24
24982 H 11.78149795660164 76.80042539260364 107.05086698133658 H 0.0 **** 0.06
24983 H 12.656293439029014 77.59240176639688 108.38426705360789 H 0.0 **** 0.06
24984 H 11.384490490932194 78.47490675757362 107.50434962967029 H 0.0 **** 0.06
24985 H 12.932382887063113 78.11319759235113 106.70421533823762 H 0.0 **** 0.06
24986 C 28.652392194020585 25.748562114806873 66.36022257726273 C 0.0 **** -0.24
24987 H 29.082304252289852 26.643088614778776 65.90904066495978 H 0.0 **** 0.06
24988 H 28.923903018181086 25.707571331532733 67.41467632726699 H 0.0 **** 0.06
24989 H 29.03687284269676 24.864885408084717 65.85028996067288 H 0.0 **** 0.06
24990 H 27.566734121028347 25.77924663746836 66.26472822253572 H 0.0 **** 0.06
24991 C 70.13260464915302 33.2950278657884 3.881464499023764 C 0.0 **** -0.24
24992 H 70.49342882516831 33.886347899787296 4.722771598360751 H 0.0 **** 0.06
24993 H 69.5596448592041 32.44561879478536 4.254530828106169 H 0.0 **** 0.06
24994 H 70.98177965881311 32.93460585286087 3.300807192020031 H 0.0 **** 0.06
24995 H 69.49593080555053 33.91363653544366 3.249111078367349 H 0.0 **** 0.06
24996 C 116.62670019942566 30.20434585044893 91.54161973727824 C 0.0 **** -0.24
24997 H 117.10716046688096 30.59808966846822 92.4366229773589 H 0.0 **** 0.06
24998 H 115.54875575829777 30.35133643315487 91.61307399880954 H 0.0 **** 0.06
24999 H 116.84335482871656 29.13921740173612 91.45194607838141 H 0.0 **** 0.06
25000 H 117.00780479683469 30.727098269054295 90.66435676431976 H 0.0 **** 0.06
25001 C 112.84715237986147 2.6201584606430686 102.08875754919046 C 0.0 **** -0.24
25002 H 112.08555058517508 2.6264539464187493 102.8692031026097 H 0.0 **** 0.06
25003 H 112.41437422623537 2.985892122162852 101.15711269261845 H 0.0 **** 0.06
25004 H 113.21336817542159 1.6042598993034005 101.94624038288796 H 0.0 **** 0.06
25005 H 113.67369031350542 3.266592090528661 102.38414161466412 H 0.0 **** 0.06
25006 C 15.587636163884028 116.95613834836381 30.38021967682988 C 0.0 **** -0.24
25007 H 15.359689235237646 116.99179890177525 31.445495532430982 H 0.0 **** 0.06
25008 H 14.938425137027668 116.22834968579578 29.89409644245015 H 0.0 **** 0.06
25009 H 16.62931467511162 116.66535381010024 30.241690251303964 H 0.0 **** 0.06
25010 H 15.423933212126574 117.93993115823518 29.941731234466204 H 0.0 **** 0.06
25011 C 30.78369404974204 79.38675181579615 80.37419418862027 C 0.0 **** -0.24
25012 H 29.910398114654498 80.03810319538323 80.4013914987911 H 0.0 **** 0.06
25013 H 30.465129052296362 78.35926435656958 80.19935433366021 H 0.0 **** 0.06
25014 H 31.310378744056734 79.44617958048948 81.32683405871231 H 0.0 **** 0.06
25015 H 31.448155706995465 79.70401808366836 79.57124096235842 H 0.0 **** 0.06
25016 C 65.63964235948794 73.97719199920232 105.9917877096228 C 0.0 **** -0.24
25017 H 65.21007220829404 73.67873718962278 106.94771778149891 H 0.0 **** 0.06
25018 H 65.48171133570446 75.04617422464435 105.84096645415482 H 0.0 **** 0.06
25019 H 65.15799161292199 73.42123602821096 105.18734961322704 H 0.0 **** 0.06
25020 H 66.70922248787457 73.76479999231469 105.99137576999644 H 0.0 **** 0.06
25021 C 90.7578709531843 13.247315496502935 104.08230184195028 C 0.0 **** -0.24
25022 H 89.98298509331971 12.54607983949488 103.77526195066744 H 0.0 **** 0.06
25023 H 90.33809005319023 14.252249438060574 104.13669809112264 H 0.0 **** 0.06
25024 H 91.57035968924077 13.231475283993404 103.35489043891897 H 0.0 **** 0.06
25025 H 91.14209585166003 12.958876467833363 105.06114316247746 H 0.0 **** 0.06
25026 C 17.802510416153044 29.280793922892286 28.47051758802513 C 0.0 **** -0.24
25027 H 17.191532500212123 29.014741413020147 27.608679954132754 H 0.0 **** 0.06
25028 H 18.745006725127276 28.734896565730907 28.429009662416945 H 0.0 **** 0.06
25029 H 17.271737187874084 29.02096681028908 29.386660483881826 H 0.0 **** 0.06
25030 H 18.001765251398698 30.352570902529067 28.457720251668775 H 0.0 **** 0.06
25031 C 98.00847412295855 100.0096201500321 30.31894883652312 C 0.0 **** -0.24
25032 H 98.76215563745214 99.48180847300952 29.734553303110616 H 0.0 **** 0.06
25033 H 98.43048389144832 100.29508671911577 31.28228506775097 H 0.0 **** 0.06
25034 H 97.14864103818604 99.35866179448857 30.47684566550962 H 0.0 **** 0.06
25035 H 97.69273372723731 100.90353609465714 29.780210990781484 H 0.0 **** 0.06
25036 C 0.570142514888687 6.484936170725792 54.68728137946226 C 0.0 **** -0.24
25037 H 1.648343558039528 6.6285594687759755 54.75047896095583 H 0.0 **** 0.06
25038 H 0.2983438180650637 6.220261759632248 53.664932559093984 H 0.0 **** 0.06
25039 H 0.06352183299377145 7.407787491683209 54.96931690893325 H 0.0 **** 0.06
25040 H 0.2702322534693735 5.684243928474995 55.36245900909017 H 0.0 **** 0.06
25041 C 64.10089117766557 115.22647584146878 79.78300848757812 C 0.0 **** -0.24
25042 H 63.36915148059231 114.92849770772725 79.03219748057421 H 0.0 **** 0.06
25043 H 63.847511430878484 114.76730123475326 80.73964877029505 H 0.0 **** 0.06
25044 H 64.09405476166825 116.31187343916034 79.88734208017485 H 0.0 **** 0.06
25045 H 65.09287664808778 114.89760697001697 79.4736265066694 H 0.0 **** 0.06
25046 C 50.34388546671158 69.22339067683342 78.18670863629788 C 0.0 **** -0.24
25047 H 50.15521486528456 70.1911543298265 77.7222400866323 H 0.0 **** 0.06
25048 H 51.27045618524539 69.2699059111024 78.75868516714158 H 0.0 **** 0.06
25049 H 50.43120835943225 68.46041025057502 77.4140148811156 H 0.0 **** 0.06
25050 H 49.518046117151414 68.97389060914051 78.85251580348202 H 0.0 **** 0.06
25051 C 96.23503652392444 65.64244145458113 43.08115082693243 C 0.0 **** -0.24
25052 H 96.38245836698374 65.05002023373089 43.984032887164744 H 0.0 **** 0.06
25053 H 95.20908231791879 66.0104786366837 43.050462433919606 H 0.0 **** 0.06
25054 H 96.4256857627521 65.02197058607402 42.20470746019552 H 0.0 **** 0.06
25055 H 96.92416872051132 66.48741426510497 43.08474781815917 H 0.0 **** 0.06
25056 C 80.3964553616419 28.067930679878167 49.48880961752113 C 0.0 **** -0.24
25057 H 80.22772963308748 28.462803462088495 50.49015430684264 H 0.0 **** 0.06
25058 H 80.05415076982123 27.033056583324864 49.44449922349531 H 0.0 **** 0.06
25059 H 81.46013991995682 28.109892948833995 49.25550845939662 H 0.0 **** 0.06
25060 H 79.84229639671693 28.66533158500564 48.765649839484695 H 0.0 **** 0.06
25061 C 109.80393561251395 96.70366756431855 3.5524674273888053 C 0.0 **** -0.24
25062 H 110.89040789424769 96.78055037008085 3.557268168952774 H 0.0 **** 0.06
25063 H 109.47483795778896 96.15629421020583 4.436929066165348 H 0.0 **** 0.06
25064 H 109.48025749526755 96.17485593909583 2.655886767505052 H 0.0 **** 0.06
25065 H 109.36919624079033 97.70307847032768 3.561164395865106 H 0.0 **** 0.06
25066 C 51.44023089237724 34.77617800846306 108.15673526230731 C 0.0 **** -0.24
25067 H 50.867064360053824 34.00872239276481 107.63678899648184 H 0.0 **** 0.06
25068 H 51.5143119709858 34.521509034681486 109.21337984141334 H 0.0 **** 0.06
25069 H 50.9397489077822 35.7389069049442 108.04890654806292 H 0.0 **** 0.06
25070 H 52.43947828170728 34.837075457159045 107.72549021725484 H 0.0 **** 0.06
25071 C 114.62085569961499 19.135894060016454 74.57437438559526 C 0.0 **** -0.24
25072 H 114.60788983838222 19.921661823092478 75.32901601003488 H 0.0 **** 0.06
25073 H 113.59747722591715 18.871655533010227 74.30752865802259 H 0.0 **** 0.06
25074 H 115.13188503120568 18.258590833835882 74.97215856467386 H 0.0 **** 0.06
25075 H 115.14718817347574 19.49236752350194 73.6881046705683 H 0.0 **** 0.06
25076 C 54.0358223639916 61.18749919029767 1.2956366407405344 C 0.0 **** -0.24
25077 H 53.69264553006059 61.94143093798675 0.5879611165234646 H 0.0 **** 0.06
25078 H 54.82871320006609 61.60564147495518 1.916008542448516 H 0.0 **** 0.06
25079 H 54.41909328160011 60.325478472459054 0.7492696975596527 H 0.0 **** 0.06
25080 H 53.20461271291296 60.87660353827397 1.9270401842405853 H 0.0 **** 0.06
25081 C 3.4906912056981128 116.77489837312294 99.42017830790601 C 0.0 **** -0.24
25082 H 3.035205325378172 117.45148456706202 100.14355365079743 H 0.0 **** 0.06
25083 H 2.8307653826969386 116.66654885614071 98.55856731469183 H 0.0 **** 0.06
25084 H 3.646189186808897 115.80034890669253 99.88412539979203 H 0.0 **** 0.06
25085 H 4.449006211374922 117.18002401319191 99.09692355890877 H 0.0 **** 0.06
25086 C 63.85689626885 74.6295441535022 53.22805931152948 C 0.0 **** -0.24
25087 H 63.839382810870184 75.32947516966294 52.39320487520098 H 0.0 **** 0.06
25088 H 62.84552316251037 74.5028396591922 53.61669621644893 H 0.0 **** 0.06
25089 H 64.50291167536207 75.01881294472946 54.01455851392643 H 0.0 **** 0.06
25090 H 64.23764950777891 73.66700606761782 52.88706149221622 H 0.0 **** 0.06
25091 C 34.51915019577214 97.16413296136568 18.45827340589044 C 0.0 **** -0.24
25092 H 34.26837267148272 96.8348685647668 17.450366828758167 H 0.0 **** 0.06
25093 H 35.546772962587426 96.87993934181995 18.686995113910037 H 0.0 **** 0.06
25094 H 33.84367642678245 96.69366596130706 19.172885977845493 H 0.0 **** 0.06
25095 H 34.41928980986768 98.24734110628722 18.521361456421886 H 0.0 **** 0.06
25096 C 40.98800922130815 10.273372220281942 56.09915290911507 C 0.0 **** -0.24
25097 H 42.01947236213111 10.445642394421967 56.40731509150678 H 0.0 **** 0.06
25098 H 40.726420047429514 10.970605175680856 55.3027124013398 H 0.0 **** 0.06
25099 H 40.32514121107613 10.426984078152188 56.95029302086633 H 0.0 **** 0.06
25100 H 40.883006797103434 9.250991241732233 55.736959977588064 H 0.0 **** 0.06
25101 C 85.4006417728788 10.771741070407131 46.789779298254416 C 0.0 **** -0.24
25102 H 85.69594682702399 11.556537753895611 47.48546756430636 H 0.0 **** 0.06
25103 H 86.10007022977939 9.938957336919714 46.862636778325054 H 0.0 **** 0.06
25104 H 85.40905447393848 11.164985566973087 45.77311655508856 H 0.0 **** 0.06
25105 H 84.39657192889791 10.425758987297172 47.03710767792285 H 0.0 **** 0.06
25106 C 121.40557975590774 103.72107315975074 57.66513344286914 C 0.0 **** -0.24
25107 H 121.41454879508112 102.66270172681769 57.92501337052803 H 0.0 **** 0.06
25108 H 122.39253153269303 104.01629358718463 57.3082101350985 H 0.0 **** 0.06
25109 H 121.14624282497826 104.30859677840684 58.54593335829147 H 0.0 **** 0.06
25110 H 120.66817370896344 103.89542126431138 56.88220615638425 H 0.0 **** 0.06
25111 C 80.33426585810588 0.8017360476349893 34.58924533870447 C 0.0 **** -0.24
25112 H 80.04073750078217 -0.018027452997628757 33.934676813872784 H 0.0 **** 0.06
25113 H 81.2262226917637 0.5183702156677157 35.148849657378776 H 0.0 **** 0.06
25114 H 79.52322269978842 1.0195101887729265 35.284956924596116 H 0.0 **** 0.06
25115 H 80.54649161061369 1.687703068089121 33.99007103434539 H 0.0 **** 0.06
25116 C 82.14293945770532 102.68177364454286 102.16970544680152 C 0.0 **** -0.24
25117 H 81.54591202867226 101.90297394004239 101.69484081485538 H 0.0 **** 0.06
25118 H 81.93365364618296 103.6409159681352 101.69549598819978 H 0.0 **** 0.06
25119 H 83.20133980205765 102.44483113631713 102.0588942674203 H 0.0 **** 0.06
25120 H 81.89183546407796 102.73624117218506 103.2288929611567 H 0.0 **** 0.06
25121 C 68.33207821093231 30.68661781246945 81.46714718002738 C 0.0 **** -0.24
25122 H 68.97364716603781 31.567930626291457 81.4854818506277 H 0.0 **** 0.06
25123 H 67.43432162032141 30.903440384748137 80.88792940935355 H 0.0 **** 0.06
25124 H 68.05113008407722 30.420487187500797 82.48630260885565 H 0.0 **** 0.06
25125 H 68.86886102082653 29.856788952227916 81.00925056151212 H 0.0 **** 0.06
25126 C 72.44344310748653 89.64824908263756 41.780621605864155 C 0.0 **** -0.24
25127 H 71.51584519872043 90.19423956027683 41.609167127747924 H 0.0 **** 0.06
25128 H 72.67646582195343 89.65239853728767 42.84554711561259 H 0.0 **** 0.06
25129 H 73.2533130510256 90.12731345961998 41.22892946487622 H 0.0 **** 0.06
25130 H 72.32924955927092 88.61982450312664 41.43705955619231 H 0.0 **** 0.06
25131 C 10.989276642700304 111.91297833523214 31.636384148314107 C 0.0 **** -0.24
25132 H 11.282315355904132 112.92395837754921 31.35420022487375 H 0.0 **** 0.06
25133 H 11.8722282212982 111.27492042976297 31.670291896179435 H 0.0 **** 0.06
25134 H 10.285284617790865 111.52108451787423 30.90221141723464 H 0.0 **** 0.06
25135 H 10.517278375808132 111.93195001574226 32.61883305496809 H 0.0 **** 0.06
25136 C 90.52170794103426 96.50096344323873 54.859783829444886 C 0.0 **** -0.24
25137 H 90.71931110834714 95.88286931643574 53.984228722945666 H 0.0 **** 0.06
25138 H 91.17209782201877 97.37639767253202 54.84005731286752 H 0.0 **** 0.06
25139 H 90.71632766323432 95.92377552118612 55.76418608705146 H 0.0 **** 0.06
25140 H 89.48056859525633 96.8224931688203 54.85064105780098 H 0.0 **** 0.06
25141 C 22.647517101280982 59.070310214955356 34.43215285474099 C 0.0 **** -0.24
25142 H 22.361234282700906 59.1403594134201 35.481983049159965 H 0.0 **** 0.06
25143 H 21.803590050092964 59.35781168322319 33.80572478905694 H 0.0 **** 0.06
25144 H 22.937744167360933 58.045103695893175 34.20389875882637 H 0.0 **** 0.06
25145 H 23.487880272077177 59.737605996117225 34.240279922210306 H 0.0 **** 0.06
25146 C 92.34206225594994 122.49895945016246 48.043127143411624 C 0.0 **** -0.24
25147 H 93.03132708127234 122.522235207369 48.887170012660704 H 0.0 **** 0.06
25148 H 91.9648712290491 121.48497100524564 47.910713076717 H 0.0 **** 0.06
25149 H 92.86336813202388 122.81466980547287 47.13937535797493 H 0.0 **** 0.06
25150 H 91.50880714763326 123.17473223972581 48.23709162070779 H 0.0 **** 0.06
25151 C 4.548433485632344 11.63671512053493 49.35122519234986 C 0.0 **** -0.24
25152 H 3.8798333228879756 12.31678830194296 48.82405407944199 H 0.0 **** 0.06
25153 H 5.276545110774933 12.213539388352014 49.92254858608655 H 0.0 **** 0.06
25154 H 5.068548847402653 11.006083655683678 48.63056225758973 H 0.0 **** 0.06
25155 H 3.968392333055263 11.010222218119921 50.0290688697236 H 0.0 **** 0.06
25156 C 87.62428877354574 56.40172238034049 70.8310640710813 C 0.0 **** -0.24
25157 H 86.91086247741885 57.095534423919815 70.38598552016359 H 0.0 **** 0.06
25158 H 88.09540581060841 55.811406591998775 70.04441535667806 H 0.0 **** 0.06
25159 H 87.10346706366306 55.737809316643194 71.52110198616901 H 0.0 **** 0.06
25160 H 88.3873781104549 56.96154405112793 71.37195084198092 H 0.0 **** 0.06
25161 C 12.484599912937028 58.78765684589403 43.53222803590336 C 0.0 **** -0.24
25162 H 12.236662952043446 58.12373716046742 44.36100490648883 H 0.0 **** 0.06
25163 H 13.463526505148081 59.23433658283745 43.70541883471978 H 0.0 **** 0.06
25164 H 11.7335587447335 59.57321836356942 43.46004563594519 H 0.0 **** 0.06
25165 H 12.503907027239109 58.2172642731416 42.604219624520965 H 0.0 **** 0.06
25166 C 68.85747212453998 111.66463348200682 84.1483773681575 C 0.0 **** -0.24
25167 H 69.52431048513571 110.92524781962993 84.59255706520875 H 0.0 **** 0.06
25168 H 68.33562867021362 112.2038349243793 84.93962031423075 H 0.0 **** 0.06
25169 H 68.13120746469116 111.16223862301763 83.51098340131739 H 0.0 **** 0.06
25170 H 69.44053360773444 112.36734197844501 83.55295128917888 H 0.0 **** 0.06
25171 C 71.01626867184143 90.79037678582148 121.09462674264861 C 0.0 **** -0.24
25172 H 70.88347041102219 90.67347309081941 120.01918113033565 H 0.0 **** 0.06
25173 H 70.04347705312674 90.92486861681698 121.56810068086008 H 0.0 **** 0.06
25174 H 71.63961560712113 91.66263398828957 121.28994716929142 H 0.0 **** 0.06
25175 H 71.4990863061472 89.90030114915226 121.50000645347586 H 0.0 **** 0.06
25176 C 120.28703614386512 114.39670026953488 45.46982357424599 C 0.0 **** -0.24
25177 H 120.77254188926736 113.99364206235606 46.35872761527446 H 0.0 **** 0.06
25178 H 119.45070180842151 113.75530762238083 45.191053945903036 H 0.0 **** 0.06
25179 H 121.00488980252756 114.43412949862375 44.64964287493592 H 0.0 **** 0.06
25180 H 119.92210419476284 115.40161749536477 45.67943299161203 H 0.0 **** 0.06
25181 C 14.663480533825759 100.45803808645337 53.866488887257454 C 0.0 **** -0.24
25182 H 14.216776690550695 100.77881679815323 52.925714318022266 H 0.0 **** 0.06
25183 H 15.748828046849457 100.46178247026191 53.77288434842135 H 0.0 **** 0.06
25184 H 14.322028181786688 99.451005379234 54.1063587577603 H 0.0 **** 0.06
25185 H 14.364279450375687 101.14128401416454 54.66164539503847 H 0.0 **** 0.06
25186 C 21.54535663714465 92.92689015757657 77.96387623618264 C 0.0 **** -0.24
25187 H 22.494801483202366 92.60940891599091 78.39650465327986 H 0.0 **** 0.06
25188 H 21.68583260055837 93.15365715703959 76.90662725559088 H 0.0 **** 0.06
25189 H 21.18971388602344 93.81608254951155 78.48261716284432 H 0.0 **** 0.06
25190 H 20.813412798693832 92.12659468204407 78.07025511809746 H 0.0 **** 0.06
25191 C 101.48568194205501 112.9369568127942 69.6180169722279 C 0.0 **** -0.24
25192 H 100.68454461696791 113.59416401508663 69.95717010243129 H 0.0 **** 0.06
25193 H 101.67727926233903 112.1765934304796 70.37545947794115 H 0.0 **** 0.06
25194 H 102.39069305637503 113.52277131482936 69.4536653846713 H 0.0 **** 0.06
25195 H 101.19008969210648 112.45597441294038 68.6861933723207 H 0.0 **** 0.06
25196 C 79.25764431310239 27.651901202912995 45.266836103321225 C 0.0 **** -0.24
25197 H 79.61841322991594 27.292840685649665 46.23105469956266 H 0.0 **** 0.06
25198 H 79.7101735917984 27.0645059173017 44.468318023995664 H 0.0 **** 0.06
25199 H 79.5284975223916 28.70118155330198 45.14583418619162 H 0.0 **** 0.06
25200 H 78.17305201666892 27.54936906250353 45.224529249053774 H 0.0 **** 0.06
25201 C 62.613331477964266 36.30391651877454 69.15006340056223 C 0.0 **** -0.24
25202 H 63.2799714079145 35.46804194936388 68.93677471331213 H 0.0 **** 0.06
25203 H 61.57812178798372 35.96706744004868 69.09115030703515 H 0.0 **** 0.06
25204 H 62.779979231491154 37.09709972535606 68.41982975969529 H 0.0 **** 0.06
25205 H 62.81619081762682 36.68434814272402 70.15067468438224 H 0.0 **** 0.06
25206 C 84.25248625047314 89.98823634099634 97.36627357277172 C 0.0 **** -0.24
25207 H 84.01279634238733 90.92888546891382 97.86021688150089 H 0.0 **** 0.06
25208 H 83.33898683782294 89.54211913016258 96.97142491945024 H 0.0 **** 0.06
25209 H 84.70882046607082 89.30662755331556 98.0848386238396 H 0.0 **** 0.06
25210 H 84.9489220340528 90.17406579953277 96.54913178898079 H 0.0 **** 0.06
25211 C 106.84388413368029 49.42149749565482 112.66744123055429 C 0.0 **** -0.24
25212 H 107.8682787884677 49.06747874930187 112.54842656435314 H 0.0 **** 0.06
25213 H 106.76486470280528 49.9988655026566 113.58967891980012 H 0.0 **** 0.06
25214 H 106.1673586032318 48.56820745745193 112.71312967537185 H 0.0 **** 0.06
25215 H 106.57757867694349 50.05303029177196 111.819526202855 H 0.0 **** 0.06
25216 C 28.698597581429652 68.67890039199835 76.21349512345037 C 0.0 **** -0.24
25217 H 29.411269676405283 67.93883169191992 76.57703317433518 H 0.0 **** 0.06
25218 H 29.015618206573663 69.67396716094305 76.52935475539766 H 0.0 **** 0.06
25219 H 27.71121892585643 68.46434478142467 76.62292208428173 H 0.0 **** 0.06
25220 H 28.65790814045542 68.63858515566096 75.1252574889952 H 0.0 **** 0.06
25221 C 19.417705277376882 122.34553652379603 65.5701445470051 C 0.0 **** -0.24
25222 H 18.509139116523727 121.79637872576455 65.32170660404444 H 0.0 **** 0.06
25223 H 19.15407299360953 123.34617529135139 65.91421759760658 H 0.0 **** 0.06
25224 H 20.04949156075628 122.42003431046126 64.68519240894403 H 0.0 **** 0.06
25225 H 19.956630710927868 121.81978503793027 66.35780680635742 H 0.0 **** 0.06
25226 C 55.05329974551601 110.03237338928713 19.257041815304092 C 0.0 **** -0.24
25227 H 55.39495582897302 110.01499277866355 18.22214415809981 H 0.0 **** 0.06
25228 H 55.05204148952719 111.05890746198381 19.62257882288705 H 0.0 **** 0.06
25229 H 55.721390943500104 109.428174347833 19.871114954329187 H 0.0 **** 0.06
25230 H 54.04363912053292 109.62527790777995 19.312538004570797 H 0.0 **** 0.06
25231 C 53.829451038524894 74.25951389498738 119.8655570473441 C 0.0 **** -0.24
25232 H 53.785195709444054 73.47596594447648 119.10808078249136 H 0.0 **** 0.06
25233 H 53.867823957059386 75.23350426976788 119.37858030037847 H 0.0 **** 0.06
25234 H 54.72096505336151 74.12247517178119 120.47695727550673 H 0.0 **** 0.06
25235 H 52.94324635539385 74.20337886259864 120.4981495537647 H 0.0 **** 0.06
25236 C 101.64544292555726 75.5704399835773 53.47393766235833 C 0.0 **** -0.24
25237 H 101.15880831416308 74.68833292973048 53.88936153782567 H 0.0 **** 0.06
25238 H 101.28563471473629 75.73808753588685 52.45752995839648 H 0.0 **** 0.06
25239 H 102.72391104920837 75.41547429674827 53.45607054996679 H 0.0 **** 0.06
25240 H 101.4125738575519 76.43802173664145 54.08980690442052 H 0.0 **** 0.06
25241 C 66.5866508274488 35.06961365366622 6.677003584744966 C 0.0 **** -0.24
25242 H 66.55927413994175 35.20651654756699 7.757915806168512 H 0.0 **** 0.06
25243 H 67.62070314190305 34.94230664895456 6.353601396110491 H 0.0 **** 0.06
25244 H 66.15893794883095 35.945681569186206 6.189264061776441 H 0.0 **** 0.06
25245 H 66.00955049376057 34.18480569463639 6.408574445064687 H 0.0 **** 0.06
25246 C 8.645127910878216 108.66386205890137 20.452995992700494 C 0.0 **** -0.24
25247 H 9.047894599418868 108.13943995245492 21.31895068155393 H 0.0 **** 0.06
25248 H 7.735746621130204 108.16481304489511 20.11752482203144 H 0.0 **** 0.06
25249 H 9.380809633529566 108.65689466399061 19.64872987475826 H 0.0 **** 0.06
25250 H 8.415415176311313 109.69305699252288 20.726586760576424 H 0.0 **** 0.06
25251 C 25.324349379091615 111.63905638653438 64.3143355090302 C 0.0 **** -0.24
25252 H 25.25634886101159 110.57427639113862 64.53737053168413 H 0.0 **** 0.06
25253 H 24.70698455064951 111.86871261310617 63.44530681536734 H 0.0 **** 0.06
25254 H 26.36075529839752 111.90103531219162 64.10276776512768 H 0.0 **** 0.06
25255 H 24.97218980217042 112.21295643161353 65.17231836330475 H 0.0 **** 0.06
25256 C 76.37706085795432 59.7247060013944 19.63989071123814 C 0.0 **** -0.24
25257 H 75.38227538293879 59.27912747333365 19.650320054662423 H 0.0 **** 0.06
25258 H 76.83519183267845 59.566893965387756 18.662778854686625 H 0.0 **** 0.06
25259 H 76.99131009259489 59.25873637886222 20.410231742195254 H 0.0 **** 0.06
25260 H 76.29744398910654 60.79433987159093 19.835317672948896 H 0.0 **** 0.06
25261 C 98.36095492838712 82.62996082765918 28.2294420412627 C 0.0 **** -0.24
25262 H 98.2091274988835 83.6965403022044 28.39754864380393 H 0.0 **** 0.06
25263 H 98.97338827530388 82.48593425807127 27.33933369255402 H 0.0 **** 0.06
25264 H 97.39535405714577 82.14389004797164 28.089795034769224 H 0.0 **** 0.06
25265 H 98.86553066571724 82.19523497442938 29.092746118672665 H 0.0 **** 0.06
25266 C 114.30063413820397 28.266492327202762 89.1328627451962 C 0.0 **** -0.24
25267 H 113.70636742978425 28.459771194903567 88.24014585191921 H 0.0 **** 0.06
25268 H 115.2381414201179 28.81839660767872 89.07057429147636 H 0.0 **** 0.06
25269 H 114.50993729640649 27.19920157141658 89.20608685007136 H 0.0 **** 0.06
25270 H 113.74651418976907 28.589805345858252 90.0148944821382 H 0.0 **** 0.06
25271 C 89.91192718154886 71.66415478455968 74.1033540935465 C 0.0 **** -0.24
25272 H 90.31874801037875 70.98892764784165 74.85621082838185 H 0.0 **** 0.06
25273 H 89.78803176051318 71.1265846713695 73.16311186783088 H 0.0 **** 0.06
25274 H 90.59761412470468 72.49943374995482 73.95708496122631 H 0.0 **** 0.06
25275 H 88.94563872789064 72.04109806216397 74.43648986955697 H 0.0 **** 0.06
25276 C 109.28291778452495 7.502623273499108 114.8042317608226 C 0.0 **** -0.24
25277 H 108.51105089949169 7.800224111503187 114.09390477482816 H 0.0 **** 0.06
25278 H 110.12785578244541 7.0738419648772 114.26354089676303 H 0.0 **** 0.06
25279 H 108.87733499925753 6.761445984781474 115.49234724378721 H 0.0 **** 0.06
25280 H 109.61564365891488 8.376111428421236 115.365216681269 H 0.0 **** 0.06
25281 C 115.2459162360698 60.981696065305904 34.87217712648982 C 0.0 **** -0.24
25282 H 116.05919082005556 61.706106020464624 34.912199363812704 H 0.0 **** 0.06
25283 H 115.39976227813762 60.30925432303609 34.027056580343015 H 0.0 **** 0.06
25284 H 114.29723411038808 61.50508371236352 34.75248697189443 H 0.0 **** 0.06
25285 H 115.22834003662024 60.4048883478633 35.79735122434448 H 0.0 **** 0.06
25286 C 57.474382013352916 102.65780994656814 56.78174789064866 C 0.0 **** -0.24
25287 H 57.02832393835714 103.0581885323189 55.870788853476995 H 0.0 **** 0.06
25288 H 58.29006930824449 103.30759256974423 57.10188538792275 H 0.0 **** 0.06
25289 H 57.86179084795723 101.6582307055427 56.58710254434666 H 0.0 **** 0.06
25290 H 56.71936280126159 102.60898396963557 57.565529153025636 H 0.0 **** 0.06
25291 C 120.07849575861172 35.53244636658667 25.71886870748166 C 0.0 **** -0.24
25292 H 120.08363959882107 36.251891618080116 24.90026979499722 H 0.0 **** 0.06
25293 H 119.33483706775118 35.82985692068546 26.458256864704687 H 0.0 **** 0.06
25294 H 121.06383993885606 35.5062391434335 26.18483779578063 H 0.0 **** 0.06
25295 H 119.83338379848182 34.543227519115085 25.332192705258137 H 0.0 **** 0.06
25296 C 56.262427666070664 85.92262790763462 3.2894148986933516 C 0.0 **** -0.24
25297 H 56.2953417131977 85.58327637981884 2.25404571699454 H 0.0 **** 0.06
25298 H 56.60493434300875 86.95653416590272 3.3432871011502243 H 0.0 **** 0.06
25299 H 56.91066959325343 85.29278807408414 3.898413502905129 H 0.0 **** 0.06
25300 H 55.239464331030774 85.85791190497511 3.6603286215198807 H 0.0 **** 0.06
25301 C 50.16061367672722 61.141720137669125 122.28505584787189 C 0.0 **** -0.24
25302 H 49.61407537612365 60.2113193501379 122.12762825490736 H 0.0 **** 0.06
25303 H 49.48410479568196 61.89673252197622 122.68656700337078 H 0.0 **** 0.06
25304 H 50.56966474973626 61.486428985057984 121.33497785218935 H 0.0 **** 0.06
25305 H 50.974527606635206 60.969522150542616 122.99020559520787 H 0.0 **** 0.06
25306 C 87.77614973513269 117.9269755627272 112.39473910649153 C 0.0 **** -0.24
25307 H 87.34553612180756 118.34473186221715 113.30445152656816 H 0.0 **** 0.06
25308 H 88.1489687534582 118.73512916407668 111.76560807504563 H 0.0 **** 0.06
25309 H 87.01119326223025 117.36840534937869 111.85478996635273 H 0.0 **** 0.06
25310 H 88.59673994074157 117.25953411711725 112.65467307151798 H 0.0 **** 0.06
25311 C 93.13266139000905 24.02395057671508 17.628599086620397 C 0.0 **** -0.24
25312 H 94.03053245197339 23.49292330728204 17.944557498734596 H 0.0 **** 0.06
25313 H 93.22149607431061 24.292608942201127 16.57564027974611 H 0.0 **** 0.06
25314 H 93.01570711425 24.926695587417385 18.226431133941816 H 0.0 **** 0.06
25315 H 92.26265441719926 23.380763209054777 17.766341921056778 H 0.0 **** 0.06
25316 C 122.65368632034776 16.89650628513634 52.49906655452678 C 0.0 **** -0.24
25317 H 122.18977387140391 16.021441452980923 52.04391063690589 H 0.0 **** 0.06
25318 H 122.86603785997167 16.690334298386674 53.548206714536626 H 0.0 **** 0.06
25319 H 121.9752540130877 17.746826397278085 52.42506331940598 H 0.0 **** 0.06
25320 H 123.58282787045172 17.128058276464998 51.978152172167775 H 0.0 **** 0.06
25321 C 120.94241361365127 19.916895897911335 19.40170690285038 C 0.0 **** -0.24
25322 H 120.20804687956317 20.36029845233782 20.074491287346177 H 0.0 **** 0.06
25323 H 120.42871739466207 19.40386748830019 18.58856166064004 H 0.0 **** 0.06
25324 H 121.55512617278669 19.203082512156623 19.952302852071625 H 0.0 **** 0.06
25325 H 121.57882348778207 20.70135125322666 18.99239114822001 H 0.0 **** 0.06
25326 C 116.91330804286112 39.65245065818901 95.61596009979198 C 0.0 **** -0.24
25327 H 116.66399775715685 40.67574642405614 95.89446183512226 H 0.0 **** 0.06
25328 H 117.05439470356889 39.59490330626741 94.53614759414725 H 0.0 **** 0.06
25329 H 116.10261807214226 38.987112866990046 95.91278752162012 H 0.0 **** 0.06
25330 H 117.8327692966983 39.352399283178485 96.1191900038354 H 0.0 **** 0.06
25331 C 53.491013199057306 93.7876759704132 36.48868049395787 C 0.0 **** -0.24
25332 H 53.28077409010069 94.78417961372935 36.10203458641149 H 0.0 **** 0.06
25333 H 52.56982268307763 93.34103634879901 36.86355145693972 H 0.0 **** 0.06
25334 H 54.21619782281675 93.8588923996551 37.299640196782775 H 0.0 **** 0.06
25335 H 53.89786037891935 93.16653611156752 35.69077400126372 H 0.0 **** 0.06
25336 C 24.806826242423966 66.63931434076531 62.92740741538822 C 0.0 **** -0.24
25337 H 25.802431340689594 67.0771286489674 62.858188728019826 H 0.0 **** 0.06
25338 H 24.88868837430917 65.55276300916685 62.941545678464365 H 0.0 **** 0.06
25339 H 24.21331294393562 66.94895476206011 62.067497609613696 H 0.0 **** 0.06
25340 H 24.323622309883945 66.9791562676576 63.843769563549984 H 0.0 **** 0.06
25341 C 49.93023806867376 10.418281678548283 114.7567032129819 C 0.0 **** -0.24
25342 H 49.125063312089466 9.984398617028063 114.16445817451981 H 0.0 **** 0.06
25343 H 50.21461921318274 11.381000774378634 114.33289383074853 H 0.0 **** 0.06
25344 H 50.790268503236035 9.748228779244442 114.74626635843634 H 0.0 **** 0.06
25345 H 49.59136639832643 10.558179622097867 115.78355116940389 H 0.0 **** 0.06
25346 C 26.71144411943061 59.77711713473667 71.4284664720146 C 0.0 **** -0.24
25347 H 26.604491177092598 60.0760275626572 70.38517800927477 H 0.0 **** 0.06
25348 H 25.88223723307027 59.126317741031414 71.70620596656042 H 0.0 **** 0.06
25349 H 26.705878446544148 60.66389506350339 72.062637650792 H 0.0 **** 0.06
25350 H 27.65278342642233 59.24385214349576 71.55938194497256 H 0.0 **** 0.06
25351 C 92.03362310067587 32.43148607257997 34.991522825538794 C 0.0 **** -0.24
25352 H 93.04550317208358 32.123954019834315 35.256366015943485 H 0.0 **** 0.06
25353 H 91.35979915550763 31.579001186100257 35.07753411528455 H 0.0 **** 0.06
25354 H 92.0240714393785 32.80065848964355 33.96504938287177 H 0.0 **** 0.06
25355 H 91.7068728342303 33.22393757555618 35.66505829173303 H 0.0 **** 0.06
25356 C 5.718701603281431 63.04887182701881 3.3230395762117695 C 0.0 **** -0.24
25357 H 5.86861286729328 62.607561780951706 2.3381643884602 H 0.0 **** 0.06
25358 H 4.804880675014431 62.64851092055387 3.7647597554781953 H 0.0 **** 0.06
25359 H 5.63183661635469 64.13056310522683 3.227245484004996 H 0.0 **** 0.06
25360 H 6.567422248486423 62.807021472437874 3.962646323429908 H 0.0 **** 0.06
25361 C 94.94940254594036 32.95448138741605 100.68627135167657 C 0.0 **** -0.24
25362 H 94.83859050765957 32.645590006055414 99.64719729515278 H 0.0 **** 0.06
25363 H 95.67830858486641 32.3117669844971 101.18099589065577 H 0.0 **** 0.06
25364 H 93.98871669561638 32.87115195299239 101.19430090127722 H 0.0 **** 0.06
25365 H 95.29111331169173 33.988735040874275 100.72391771583474 H 0.0 **** 0.06
25366 C 70.56348454660338 53.32527980265977 76.95842880490497 C 0.0 **** -0.24
25367 H 70.48215206366501 54.194349578174986 77.61112312137743 H 0.0 **** 0.06
25368 H 70.33873935127878 52.42192906055748 77.52565554439451 H 0.0 **** 0.06
25369 H 71.57662535391964 53.26329929938965 76.56053902210351 H 0.0 **** 0.06
25370 H 69.85471059499707 53.42228916064948 76.13516707335583 H 0.0 **** 0.06
25371 C 119.26703841315067 70.36571813485446 104.33283449265863 C 0.0 **** -0.24
25372 H 119.0111735253199 69.65236558150238 103.54967333464865 H 0.0 **** 0.06
25373 H 119.49035802191268 69.82832802444244 105.25517468006953 H 0.0 **** 0.06
25374 H 118.4260646058481 71.039589150746 104.4988106420642 H 0.0 **** 0.06
25375 H 120.13956914723596 70.94274193361258 104.02768740892006 H 0.0 **** 0.06
25376 C 101.22266781857255 53.4754086569244 104.77889772757342 C 0.0 **** -0.24
25377 H 100.46859054832811 53.9119827547116 105.43435993009712 H 0.0 **** 0.06
25378 H 102.20363087965248 53.87174945985552 105.03973777707586 H 0.0 **** 0.06
25379 H 100.99173814779584 53.72542064918986 103.7438013199583 H 0.0 **** 0.06
25380 H 101.22418880161877 52.39189494726065 104.90039214550475 H 0.0 **** 0.06
25381 C 56.694115857623075 1.5853197072475993 34.59022764220782 C 0.0 **** -0.24
25382 H 56.83696130352283 2.660700179084449 34.694588210796326 H 0.0 **** 0.06
25383 H 57.62899101020719 1.124370224818918 34.26844315051545 H 0.0 **** 0.06
25384 H 55.91935130882948 1.3921301179539753 33.84873943203405 H 0.0 **** 0.06
25385 H 56.39255090289666 1.164141098468253 35.549386804584 H 0.0 **** 0.06
25386 C 102.26477794993164 13.589296360370412 13.996380235429967 C 0.0 **** -0.24
25387 H 102.03633387409815 14.026475263319782 14.968811768496721 H 0.0 **** 0.06
25388 H 101.34897416282243 13.202811832062196 13.547767563077599 H 0.0 **** 0.06
25389 H 102.9797267649013 12.775463712136059 14.122716358524372 H 0.0 **** 0.06
25390 H 102.69334877301566 14.352476963852752 13.347436865427937 H 0.0 **** 0.06
25391 C 1.6795365258452826 15.78572422413123 91.06984760888366 C 0.0 **** -0.24
25392 H 1.1612733015975358 16.743410503047414 91.11381723368373 H 0.0 **** 0.06
25393 H 2.3112761313738304 15.673450927505542 91.95150057770266 H 0.0 **** 0.06
25394 H 2.296334389189788 15.748215155591652 90.17240036939006 H 0.0 **** 0.06
25395 H 0.947545990203194 14.977663620576209 91.04184534559874 H 0.0 **** 0.06
25396 C 68.47493931150495 23.449108193959177 21.206077499629927 C 0.0 **** -0.24
25397 H 67.71288525939167 23.774504204951782 21.914756713091066 H 0.0 **** 0.06
25398 H 67.99718534420003 22.94598050906299 20.365486159127443 H 0.0 **** 0.06
25399 H 69.15959336486236 22.760439476282386 21.70128388244177 H 0.0 **** 0.06
25400 H 69.02841935595575 24.316415322075926 20.845308391760824 H 0.0 **** 0.06
25401 C 69.24258440986245 64.73958543656966 64.8921729527037 C 0.0 **** -0.24
25402 H 69.7684281761797 63.87417673423959 64.49089356180028 H 0.0 **** 0.06
25403 H 68.1858851700907 64.49910385958768 65.01591279660181 H 0.0 **** 0.06
25404 H 69.34583550439612 65.57908337350821 64.20354341558055 H 0.0 **** 0.06
25405 H 69.67069605808592 65.00893234850764 65.85845907317173 H 0.0 **** 0.06
25406 C 100.83067494801469 19.85596708704884 12.326754342500237 C 0.0 **** -0.24
25407 H 101.76835630252685 20.062307993847725 11.810569059838258 H 0.0 **** 0.06
25408 H 100.83958761849999 20.341697777013735 13.30208113094477 H 0.0 **** 0.06
25409 H 100.71735364649774 18.779756655645343 12.456263047412847 H 0.0 **** 0.06
25410 H 99.99888648041906 20.239956046568267 11.735315749022561 H 0.0 **** 0.06
25411 C 47.309274558930184 56.35372084526153 60.64304321282626 C 0.0 **** -0.24
25412 H 46.45009585996458 56.34898564575176 61.3132563363435 H 0.0 **** 0.06
25413 H 47.89538383638461 55.44717892846466 60.79868022163052 H 0.0 **** 0.06
25414 H 47.928732345531074 57.22664304738381 60.85231597137741 H 0.0 **** 0.06
25415 H 46.96450473173384 56.39129062596114 59.61010306009601 H 0.0 **** 0.06
25416 C 7.508340165883741 89.99882464991634 44.08845484678699 C 0.0 **** -0.24
25417 H 7.371758292459045 90.27334522543549 45.133705959713836 H 0.0 **** 0.06
25418 H 6.567033673264962 89.62452853394089 43.68500016560489 H 0.0 **** 0.06
25419 H 8.270806158018718 89.22310537986169 44.01252464067903 H 0.0 **** 0.06
25420 H 7.823564737803203 90.87474925651426 43.521255856721666 H 0.0 **** 0.06
25421 C 70.2508918162697 88.73593876461786 117.55973184198486 C 0.0 **** -0.24
25422 H 69.27866733618254 88.68502954516063 118.0482713497838 H 0.0 **** 0.06
25423 H 70.27548396393536 89.592013012438 116.88598916235503 H 0.0 **** 0.06
25424 H 70.41998727842338 87.8214284672886 116.99140468301694 H 0.0 **** 0.06
25425 H 71.03131936576983 88.84381542590026 118.31378068747551 H 0.0 **** 0.06
25426 C 115.95769860120807 26.638067770859152 114.69193308874962 C 0.0 **** -0.24
25427 H 116.48371680303573 27.11126059416776 113.86238588167372 H 0.0 **** 0.06
25428 H 114.9603995745098 27.06757903893339 114.78205967354037 H 0.0 **** 0.06
25429 H 116.51153763631795 26.80666321968485 115.61560512996924 H 0.0 **** 0.06
25430 H 115.87725446887131 25.566791249157745 114.50695336830935 H 0.0 **** 0.06
25431 C 10.299533155710208 97.74955531372638 110.06392220165907 C 0.0 **** -0.24
25432 H 9.774277158656815 98.64413071649841 110.40076816072337 H 0.0 **** 0.06
25433 H 10.516818614096508 97.11166274146288 110.92061480790136 H 0.0 **** 0.06
25434 H 11.231794337143839 98.03790924673888 109.57895705680744 H 0.0 **** 0.06
25435 H 9.673259637659413 97.20647244513262 109.3558497258328 H 0.0 **** 0.06
25436 C 116.123520038914 73.54282299785012 36.59384151477985 C 0.0 **** -0.24
25437 H 116.69778049371072 72.63066741781972 36.76030873550443 H 0.0 **** 0.06
25438 H 116.53607491701644 74.08105348303567 35.74064017147018 H 0.0 **** 0.06
25439 H 116.17600680329065 74.17172633234787 37.48191178227791 H 0.0 **** 0.06
25440 H 115.08338742928905 73.28433670258156 36.39257259076284 H 0.0 **** 0.06
25441 C 40.194917656140376 94.86885000956539 36.725881390099346 C 0.0 **** -0.24
25442 H 40.49308970068702 95.4468459797408 35.85044933115441 H 0.0 **** 0.06
25443 H 39.29058695285893 94.3046129198176 36.498448754618664 H 0.0 **** 0.06
25444 H 40.001248177806204 95.54642961158834 37.55832912303464 H 0.0 **** 0.06
25445 H 40.99570502601716 94.18046977984318 36.99572461833736 H 0.0 **** 0.06
25446 C 17.614738267880497 14.209008674436916 20.672880903390023 C 0.0 **** -0.24
25447 H 17.088850131605966 13.780277782155707 21.525760496805276 H 0.0 **** 0.06
25448 H 18.04953231170009 15.166489421070082 20.958362679660866 H 0.0 **** 0.06
25449 H 16.91276142188923 14.359154360415943 19.8521129956531 H 0.0 **** 0.06
25450 H 18.405596690629366 13.530280437309727 20.355009840575406 H 0.0 **** 0.06
25451 C 110.9497613734583 11.607363563467697 2.781068264243615 C 0.0 **** -0.24
25452 H 111.81927958093561 11.618156694604277 3.438604383574999 H 0.0 **** 0.06
25453 H 111.22854778263604 12.006624526983899 1.8048935572910185 H 0.0 **** 0.06
25454 H 110.16002187262157 12.221468358212245 3.2133285174510657 H 0.0 **** 0.06
25455 H 110.59459945062315 10.58383163651797 2.66728577714154 H 0.0 **** 0.06
25456 C 18.495450466867773 54.19664697925421 57.56432677766346 C 0.0 **** -0.24
25457 H 17.762667918959824 53.4462041962706 57.266297343563885 H 0.0 **** 0.06
25458 H 18.738957618739157 54.826675624289294 56.70950794408696 H 0.0 **** 0.06
25459 H 19.399559874597355 53.70065541775989 57.919029106315826 H 0.0 **** 0.06
25460 H 18.08123911054442 54.81182108908854 58.36351945176059 H 0.0 **** 0.06
25461 C 118.08412298350592 49.17614972769417 107.64906427806758 C 0.0 **** -0.24
25462 H 117.7870591606607 48.13878374574222 107.49884787060958 H 0.0 **** 0.06
25463 H 118.90410384937965 49.42078613406039 106.97361142488896 H 0.0 **** 0.06
25464 H 118.40846430108154 49.31470050165939 108.68062307154207 H 0.0 **** 0.06
25465 H 117.23686274426795 49.83065521257021 107.4445507488077 H 0.0 **** 0.06
25466 C 19.285627221069376 27.184902170714906 4.647668572661315 C 0.0 **** -0.24
25467 H 19.45951768626412 26.168832848539466 5.001126261744851 H 0.0 **** 0.06
25468 H 20.24139797569387 27.695037458359536 4.5253721506019335 H 0.0 **** 0.06
25469 H 18.676728622255098 27.723019418196202 5.374723247256796 H 0.0 **** 0.06
25470 H 18.76547656673756 27.15310647461706 3.6906673074616414 H 0.0 **** 0.06
25471 C 88.6394041134493 98.00367238507738 101.28486307179156 C 0.0 **** -0.24
25472 H 88.03639093669494 97.76890229710222 100.40686516281758 H 0.0 **** 0.06
25473 H 88.27062544163928 97.43671994916684 102.13999252857192 H 0.0 **** 0.06
25474 H 88.5698930992074 99.07116139969654 101.49744395650919 H 0.0 **** 0.06
25475 H 89.67908549943502 97.73874050808277 101.0929885388704 H 0.0 **** 0.06
25476 C 28.3878844716171 73.20329472594642 7.859147229834491 C 0.0 **** -0.24
25477 H 28.551198341608654 73.49566195975387 6.822034849189862 H 0.0 **** 0.06
25478 H 28.709579722894716 74.00995730586078 8.518071953695681 H 0.0 **** 0.06
25479 H 28.96233337931784 72.30391939971366 8.078178127140092 H 0.0 **** 0.06
25480 H 27.327616351311804 73.00556116853642 8.017495250806206 H 0.0 **** 0.06
25481 C 13.535749907797339 12.801908304626636 74.65063535343108 C 0.0 **** -0.24
25482 H 13.852245807732828 13.102404964894248 75.64986869853269 H 0.0 **** 0.06
25483 H 14.089640248504878 11.912797274467465 74.34693438857178 H 0.0 **** 0.06
25484 H 13.734745520508511 13.610937589602145 73.94846412110124 H 0.0 **** 0.06
25485 H 12.468972681679674 12.581017801844098 74.6586849621466 H 0.0 **** 0.06
25486 C 111.16365299970221 40.31684531620299 119.78063878538299 C 0.0 **** -0.24
25487 H 111.33366827811648 40.28930854919325 120.85730758493193 H 0.0 **** 0.06
25488 H 111.36063491487309 41.3223279011971 119.40744301977745 H 0.0 **** 0.06
25489 H 110.12847595869832 40.04765142390457 119.57050007519004 H 0.0 **** 0.06
25490 H 111.83011548820701 39.60798685518462 119.28904792443939 H 0.0 **** 0.06
25491 C 77.90847511798302 101.78033221631475 25.543866790173368 C 0.0 **** -0.24
25492 H 78.1154408634277 102.85055268602196 25.52956739381665 H 0.0 **** 0.06
25493 H 77.14519841411374 101.56728882234955 26.293587020428674 H 0.0 **** 0.06
25494 H 78.82081127259102 101.2363043857149 25.788471762695593 H 0.0 **** 0.06
25495 H 77.5509836252989 101.4665093382732 24.56199801677971 H 0.0 **** 0.06
25496 C 42.791753146176944 4.455031709487656 8.921078311569943 C 0.0 **** -0.24
25497 H 43.107136984018894 3.7869998489338457 9.722581024810523 H 0.0 **** 0.06
25498 H 43.653665785985 5.0099226059795114 8.55035896953612 H 0.0 **** 0.06
25499 H 42.04506611315625 5.152563450343962 9.302172974869904 H 0.0 **** 0.06
25500 H 42.36001558606591 3.8698661351866406 8.10884368821172 H 0.0 **** 0.06
25501 C 57.09808204969722 10.931835904362575 29.10882778218467 C 0.0 **** -0.24
25502 H 56.9026894976193 10.012088047976142 28.558026795768356 H 0.0 **** 0.06
25503 H 56.44444515581345 10.9796736627578 29.980228110143464 H 0.0 **** 0.06
25504 H 56.908379126226016 11.789589271184326 28.464030094780234 H 0.0 **** 0.06
25505 H 58.13900429734952 10.945771863625193 29.434101315065206 H 0.0 **** 0.06
25506 C 55.25974148626241 75.5172557809253 110.11693433888976 C 0.0 **** -0.24
25507 H 54.301769172584244 75.64605781742202 110.61939243296612 H 0.0 **** 0.06
25508 H 55.74514346371359 74.61400955388788 110.48692260504632 H 0.0 **** 0.06
25509 H 55.89540788024081 76.37955603525717 110.31850478579724 H 0.0 **** 0.06
25510 H 55.09827407238987 75.42904721870559 109.0424448469048 H 0.0 **** 0.06
25511 C 96.58370573967628 112.26441322602707 99.56473862142511 C 0.0 **** -0.24
25512 H 97.2059401566975 113.12211692001006 99.82048232157365 H 0.0 **** 0.06
25513 H 95.54470260416261 112.4827552616276 99.81249333028259 H 0.0 **** 0.06
25514 H 96.91719079066971 111.39405175771071 100.12951268472364 H 0.0 **** 0.06
25515 H 96.66775040459567 112.0594136089205 98.49786340081104 H 0.0 **** 0.06
25516 C 89.64305367467 2.006148138001933 120.19021760775357 C 0.0 **** -0.24
25517 H 88.88097679497486 2.3327500216695967 119.48197667413305 H 0.0 **** 0.06
25518 H 90.56634724436833 1.7863327062794667 119.65503143472056 H 0.0 **** 0.06
25519 H 89.29846106132695 1.110175274833594 120.7063606867444 H 0.0 **** 0.06
25520 H 89.82416279155424 2.7970917117129375 120.91838167487376 H 0.0 **** 0.06
25521 C 33.42608396834294 81.63587121786074 110.68762831117999 C 0.0 **** -0.24
25522 H 33.809671858668 82.38519492323718 109.9946308459142 H 0.0 **** 0.06
25523 H 33.274854188683435 80.69533624458089 110.1576248561353 H 0.0 **** 0.06
25524 H 32.47658880229824 81.97620041193917 111.10158499139749 H 0.0 **** 0.06
25525 H 34.142804974967106 81.48713476670298 111.49503500822566 H 0.0 **** 0.06
25526 C 1.0906767058092584 50.40510310566627 90.41933332782216 C 0.0 **** -0.24
25527 H 1.051091276103719 51.485186238226504 90.56100038808498 H 0.0 **** 0.06
25528 H 0.9086757407464603 49.90715854182602 91.37215127241018 H 0.0 **** 0.06
25529 H 2.0751044095447924 50.124263439738 90.04521797429479 H 0.0 **** 0.06
25530 H 0.32862037556007806 50.10468311319852 89.70023312206368 H 0.0 **** 0.06
25531 C 85.26422575677339 34.762291226952755 39.20268821638244 C 0.0 **** -0.24
25532 H 84.22235516579408 35.03775391431776 39.03855071158253 H 0.0 **** 0.06
25533 H 85.84577173624993 34.99564598058652 38.30944239500462 H 0.0 **** 0.06
25534 H 85.32954151793743 33.69374511817773 39.40884402928933 H 0.0 **** 0.06
25535 H 85.65974996045787 35.32138962917986 40.050403194972944 H 0.0 **** 0.06
25536 C 15.095369736909504 54.88970973974028 52.2860961778767 C 0.0 **** -0.24
25537 H 14.52970169658522 55.04400575601642 53.205575160427394 H 0.0 **** 0.06
25538 H 16.12540139363 55.213488335404065 52.435090575098904 H 0.0 **** 0.06
25539 H 14.64378007316219 55.4694803003822 51.48157087769601 H 0.0 **** 0.06
25540 H 15.07963651820711 53.83218639386405 52.02441524434666 H 0.0 **** 0.06
25541 C 34.284938507621774 55.72054103375907 10.009256049382657 C 0.0 **** -0.24
25542 H 33.244026756679226 55.39907477649303 9.994348222813983 H 0.0 **** 0.06
25543 H 34.89018332421397 54.968477066832314 10.51642435337692 H 0.0 **** 0.06
25544 H 34.365387396855795 56.66953364332647 10.539231636466354 H 0.0 **** 0.06
25545 H 34.64139019705485 55.844897926388974 8.986352472637407 H 0.0 **** 0.06
25546 C 23.464841857240316 117.06882500036453 88.10936659744146 C 0.0 **** -0.24
25547 H 23.585533503690726 116.07958711512302 87.66856615913093 H 0.0 **** 0.06
25548 H 24.403077230644584 117.6181144531533 88.03201930369448 H 0.0 **** 0.06
25549 H 23.18806696843103 116.96772536786932 89.15837689615228 H 0.0 **** 0.06
25550 H 22.680932042871405 117.60991341265937 87.57712229284743 H 0.0 **** 0.06
25551 C 27.74531715062946 89.92496649273562 1.3459762960332284 C 0.0 **** -0.24
25552 H 26.776973170395024 90.01484071578926 1.8379851114980141 H 0.0 **** 0.06
25553 H 27.82298715319827 90.67311761624 0.5575041278698905 H 0.0 **** 0.06
25554 H 27.840810028195335 88.92931108851201 0.9119041844425908 H 0.0 **** 0.06
25555 H 28.539434265741193 90.08066803390426 2.076125705431622 H 0.0 **** 0.06
25556 C 104.74175818459102 99.46169648942922 34.78334911058755 C 0.0 **** -0.24
25557 H 103.89750762535769 100.0962296516685 34.51577159582769 H 0.0 **** 0.06
25558 H 104.3749982124042 98.53287697852747 35.22091807718084 H 0.0 **** 0.06
25559 H 105.37166128577496 99.98018260278133 35.50523572626389 H 0.0 **** 0.06
25560 H 105.3243286561329 99.23744558379724 33.88905084886176 H 0.0 **** 0.06
25561 C 72.40615537165567 14.791100888994492 72.19899657720839 C 0.0 **** -0.24
25562 H 71.8752142854378 15.376315696524102 72.95003208856531 H 0.0 **** 0.06
25563 H 71.79720509074323 14.719436872741824 71.29750005260652 H 0.0 **** 0.06
25564 H 72.60055969433336 13.792075670331371 72.58666601274277 H 0.0 **** 0.06
25565 H 73.35130845026717 15.279804638278677 71.96021950246842 H 0.0 **** 0.06
25566 C 116.22501473761457 115.52449256033891 47.729335861693826 C 0.0 **** -0.24
25567 H 116.96485038829186 115.06486672308321 48.38460940985266 H 0.0 **** 0.06
25568 H 115.67084610760358 116.28375274224891 48.283198082345294 H 0.0 **** 0.06
25569 H 115.5357529127489 114.76182343543725 47.367937148043865 H 0.0 **** 0.06
25570 H 116.72992789061342 115.98958375722631 46.88178167539432 H 0.0 **** 0.06
25571 C 87.57143332870305 5.790429361064525 30.349420092137677 C 0.0 **** -0.24
25572 H 86.9825574236203 6.677719066252337 30.580889853976885 H 0.0 **** 0.06
25573 H 87.03447664659296 4.901824891775732 30.680637124253337 H 0.0 **** 0.06
25574 H 88.53137026940882 5.8476603949733885 30.86169517098614 H 0.0 **** 0.06
25575 H 87.73582454106906 5.7351855349500624 29.272645808942514 H 0.0 **** 0.06
25576 C 120.32930773546835 59.00281252697037 102.21140756017476 C 0.0 **** -0.24
25577 H 120.77232576166372 59.47026132535522 101.33154971702243 H 0.0 **** 0.06
25578 H 120.95761680607743 59.197533638393914 103.0809428196088 H 0.0 **** 0.06
25579 H 120.25180689000479 57.92759235467198 102.05146286336256 H 0.0 **** 0.06
25580 H 119.33510170905805 59.417705882113545 102.38046692569117 H 0.0 **** 0.06
25581 C 78.88967183949418 25.39699814205096 106.12207440844264 C 0.0 **** -0.24
25582 H 79.94603526282381 25.587800596313002 105.93194579350319 H 0.0 **** 0.06
25583 H 78.36161216333787 26.345225063383282 106.21935121223797 H 0.0 **** 0.06
25584 H 78.78532417564281 24.8257089954501 107.0446053929794 H 0.0 **** 0.06
25585 H 78.46793662896775 24.828795734171422 105.29331959898153 H 0.0 **** 0.06
25586 C 90.10769351194915 81.8177258568746 36.88768580688905 C 0.0 **** -0.24
25587 H 89.94630357433203 82.0615003536144 35.836717911156576 H 0.0 **** 0.06
25588 H 90.11973944960897 80.73514992401846 37.01165491469832 H 0.0 **** 0.06
25589 H 89.3019691921802 82.24385629206927 37.48577971566328 H 0.0 **** 0.06
25590 H 91.06123285712653 82.2326833103495 37.21405392613123 H 0.0 **** 0.06
25591 C 77.65092018541768 0.8589810921042158 92.80633930670518 C 0.0 **** -0.24
25592 H 77.24849485415695 0.8444665338429616 91.79332088437047 H 0.0 **** 0.06
25593 H 77.5982779677959 1.8730493589089718 93.20348099004013 H 0.0 **** 0.06
25594 H 78.6898447703812 0.5279183623164982 92.78889310720822 H 0.0 **** 0.06
25595 H 77.067210441696 0.18921211132793303 93.43783323068311 H 0.0 **** 0.06
25596 C 86.25953515178873 0.6268195442781064 1.2978620064271809 C 0.0 **** -0.24
25597 H 87.32773138956415 0.49557972319823307 1.47044251873848 H 0.0 **** 0.06
25598 H 85.8012580128279 -0.34408551073030935 1.1069048780184403 H 0.0 **** 0.06
25599 H 86.10906050703221 1.2760071601763343 0.4360540943723663 H 0.0 **** 0.06
25600 H 85.80224617664302 1.0786488067032565 2.177760412795976 H 0.0 **** 0.06
25601 C 6.323935975274168 118.28452795051481 1.4475067128385177 C 0.0 **** -0.24
25602 H 7.2437847174057595 118.52405879678145 1.9807902982573466 H 0.0 **** 0.06
25603 H 6.520589354348203 118.2659639977393 0.3752296983345076 H 0.0 **** 0.06
25604 H 5.569963032216293 119.0411989327045 1.6662439931819222 H 0.0 **** 0.06
25605 H 5.961807666162429 117.3078027950302 1.7676834794565508 H 0.0 **** 0.06
25606 C 78.71822010058594 63.44583389924525 60.6938445082617 C 0.0 **** -0.24
25607 H 78.97457745013966 63.1936884183201 61.723106247001134 H 0.0 **** 0.06
25608 H 78.1006053201626 62.65353204606743 60.27037088591363 H 0.0 **** 0.06
25609 H 79.63104282114469 63.54768071681202 60.106506392253245 H 0.0 **** 0.06
25610 H 78.16684043416373 64.3856456935226 60.67648495417597 H 0.0 **** 0.06
25611 C 67.33660544978403 6.1647645836850415 106.58686747049686 C 0.0 **** -0.24
25612 H 66.32651175841721 6.42196149271814 106.90574144991524 H 0.0 **** 0.06
25613 H 68.02977871077263 6.323137612151868 107.41338787368349 H 0.0 **** 0.06
25614 H 67.62340389013946 6.795917024049743 105.74567879578225 H 0.0 **** 0.06
25615 H 67.36577669136386 5.1181258478055724 106.2829603209403 H 0.0 **** 0.06
25616 C 0.003153982561173052 101.24735337565548 51.678306829453106 C 0.0 **** -0.24
25617 H -0.12661714547824765 101.54360342921055 50.63775147393454 H 0.0 **** 0.06
25618 H -0.2749204663463427 102.07587072917309 52.329558480788364 H 0.0 **** 0.06
25619 H 1.0450621901768535 100.98007838279301 51.8529964458599 H 0.0 **** 0.06
25620 H -0.6324190550547577 100.38697831408803 51.89228089585811 H 0.0 **** 0.06
25621 C 37.38580827359624 31.392022933280714 42.73420263401775 C 0.0 **** -0.24
25622 H 37.20745951186268 30.317618617160463 42.681294590142386 H 0.0 **** 0.06
25623 H 38.02140610657818 31.696453343152598 41.901448911208035 H 0.0 **** 0.06
25624 H 37.87826681177313 31.632295935265972 43.67582332976963 H 0.0 **** 0.06
25625 H 36.43359756486939 31.92054229665962 42.67708657229295 H 0.0 **** 0.06
25626 C 7.7515178777441065 31.629397239267178 1.6311746822495081 C 0.0 **** -0.24
25627 H 7.803064732342904 31.047697622053477 2.5511902095550028 H 0.0 **** 0.06
25628 H 6.724553848509885 31.636561230586523 1.2631559291204297 H 0.0 **** 0.06
25629 H 8.40361882733734 31.181938667488566 0.881221820363379 H 0.0 **** 0.06
25630 H 8.073517233306035 32.6518843331834 1.8292824913856975 H 0.0 **** 0.06
25631 C 118.39331497917983 22.111506843919784 39.609449749512954 C 0.0 **** -0.24
25632 H 118.8956145723615 22.10582631473943 38.642800431500355 H 0.0 **** 0.06
25633 H 118.38458225105013 23.125885662218636 40.00790484752165 H 0.0 **** 0.06
25634 H 118.92405925577337 21.45420931183402 40.298946416495376 H 0.0 **** 0.06
25635 H 117.36900383753438 21.76010608688732 39.4881473025342 H 0.0 **** 0.06
25636 C 85.83662709474788 104.46028135500214 53.09862609578067 C 0.0 **** -0.24
25637 H 85.62389449485997 104.15898550970368 52.073009806084144 H 0.0 **** 0.06
25638 H 85.13327154837512 105.23435258599724 53.40351913345904 H 0.0 **** 0.06
25639 H 86.85372718904395 104.84862641927634 53.15958255104732 H 0.0 **** 0.06
25640 H 85.73787958101406 103.59822757142183 53.75843238484282 H 0.0 **** 0.06
25641 C 74.82008767483876 83.1341870209317 109.40161447220854 C 0.0 **** -0.24
25642 H 74.78161581817977 82.07321483481962 109.15300813142036 H 0.0 **** 0.06
25643 H 74.05766171124887 83.36031247563741 110.14709891995642 H 0.0 **** 0.06
25644 H 74.63555608111014 83.72395011493671 108.50272359353079 H 0.0 **** 0.06
25645 H 75.80418077138478 83.37841217745583 109.80128679277252 H 0.0 **** 0.06
25646 C 36.03037264866531 28.3072703993233 20.834704618286622 C 0.0 **** -0.24
25647 H 36.75786506671809 28.031170016840036 21.598687960866847 H 0.0 **** 0.06
25648 H 36.14693999922471 27.653651324928177 19.97026648569339 H 0.0 **** 0.06
25649 H 36.19522200724493 29.341719695261645 20.533386730524356 H 0.0 **** 0.06
25650 H 35.02336823463896 28.20270815016829 21.238008411784463 H 0.0 **** 0.06
25651 C 6.488866684818703 54.49260460408686 116.55191131535841 C 0.0 **** -0.24
25652 H 6.247505925535563 53.66331847129221 117.21639652214611 H 0.0 **** 0.06
25653 H 7.033107508140262 54.11646906646549 115.68525904979333 H 0.0 **** 0.06
25654 H 7.108553773566285 55.21550481002105 117.08345848271551 H 0.0 **** 0.06
25655 H 5.5690167694554304 54.97571704310413 116.22304871541527 H 0.0 **** 0.06
25656 C 83.64035470381475 61.04907044744283 35.21452898655548 C 0.0 **** -0.24
25657 H 83.6649375774056 62.042033272337505 34.76572988436317 H 0.0 **** 0.06
25658 H 83.36922347069921 61.1337282899126 36.26735617566476 H 0.0 **** 0.06
25659 H 84.62451721067637 60.58806322750934 35.12899741340857 H 0.0 **** 0.06
25660 H 82.90343532827492 60.434872898948754 34.69766991757541 H 0.0 **** 0.06
25661 C 52.741673398770814 13.24242740596003 10.319057060862669 C 0.0 **** -0.24
25662 H 52.6441917726998 13.750141346575731 11.278490747349437 H 0.0 **** 0.06
25663 H 53.67644945359274 12.682584572749363 10.297965954415556 H 0.0 **** 0.06
25664 H 52.74118234537994 13.980649434395218 9.516337188731747 H 0.0 **** 0.06
25665 H 51.90388710210959 12.557760447372885 10.183427201249636 H 0.0 **** 0.06
25666 C 79.0323121134168 71.47220232730501 10.310466577094587 C 0.0 **** -0.24
25667 H 79.49731447313701 70.81541606792271 11.045809868664946 H 0.0 **** 0.06
25668 H 78.12303762725261 71.00487301453839 9.929942654588473 H 0.0 **** 0.06
25669 H 79.7249901114788 71.64379639762987 9.487061605455779 H 0.0 **** 0.06
25670 H 78.78233216505788 72.42350585169135 10.78048016683664 H 0.0 **** 0.06
25671 C 104.88970904698081 33.0823943031846 4.245527498835269 C 0.0 **** -0.24
25672 H 104.88312533838018 34.086924868229175 3.8223607078963298 H 0.0 **** 0.06
25673 H 104.34869409121282 32.40595523680378 3.582500927210198 H 0.0 **** 0.06
25674 H 104.40797666477562 33.09758730482446 5.222590009377093 H 0.0 **** 0.06
25675 H 105.91897227842657 32.740408049367915 4.35258222679027 H 0.0 **** 0.06
25676 C 54.53308880715127 45.36331740766903 45.86569523783959 C 0.0 **** -0.24
25677 H 54.515602998992875 44.71537832708073 44.98911703440848 H 0.0 **** 0.06
25678 H 54.08475350391018 44.842629397524945 46.711458528596935 H 0.0 **** 0.06
25679 H 53.9681757443804 46.27191693388761 45.656527171722615 H 0.0 **** 0.06
25680 H 55.56396744008191 45.62353940660442 46.10345524446788 H 0.0 **** 0.06
25681 C 37.94471055661205 77.69825122725914 3.086323302780613 C 0.0 **** -0.24
25682 H 38.60844461429332 77.57819561891006 2.2295713377679363 H 0.0 **** 0.06
25683 H 37.40812673644541 78.64308933322752 2.9998022767776007 H 0.0 **** 0.06
25684 H 38.532643521590785 77.69485764176977 4.004232584093188 H 0.0 **** 0.06
25685 H 37.23031679586592 76.87479159335001 3.1088169070844884 H 0.0 **** 0.06
25686 C 62.47195737550879 34.527707792899264 55.909703903309605 C 0.0 **** -0.24
25687 H 62.76202097904194 33.48139225318556 56.0025316713764 H 0.0 **** 0.06
25688 H 61.585408388822934 34.60405238526582 55.27812677388323 H 0.0 **** 0.06
25689 H 63.288118157713974 35.09283949543152 55.458928018558936 H 0.0 **** 0.06
25690 H 62.25090028088197 34.932926363239204 56.89679040490984 H 0.0 **** 0.06
25691 C 87.67306370315634 61.35584853307676 10.181919883307984 C 0.0 **** -0.24
25692 H 87.89527842214065 60.6860780630254 9.352289144586592 H 0.0 **** 0.06
25693 H 88.57763006750724 61.51748132690859 10.770008124178673 H 0.0 **** 0.06
25694 H 86.90382213033175 60.91006088161142 10.812598809412947 H 0.0 **** 0.06
25695 H 87.3162794555009 62.310339830080416 9.793836720488088 H 0.0 **** 0.06
25696 C 57.013447977723104 122.21408600337548 45.53335162192997 C 0.0 **** -0.24
25697 H 57.39647368503779 121.44097834615977 44.86701686828499 H 0.0 **** 0.06
25698 H 57.68907898310215 122.32937311030044 46.382118298895875 H 0.0 **** 0.06
25699 H 56.02512259781895 121.92677620466002 45.89273466785721 H 0.0 **** 0.06
25700 H 56.94351626708476 123.15764620618623 44.99307782800423 H 0.0 **** 0.06
25701 C 120.24410923641346 8.28579599279044 86.17014012397141 C 0.0 **** -0.24
25702 H 121.06119424567737 8.705000860961945 86.7585851767862 H 0.0 **** 0.06
25703 H 120.61749065368019 7.452923227152922 85.57351171725185 H 0.0 **** 0.06
25704 H 119.8414258121393 9.053410780534307 85.50969732024157 H 0.0 **** 0.06
25705 H 119.45922592070221 7.932255574613322 86.83811275323285 H 0.0 **** 0.06
25706 C 46.05796784848329 34.51610512937566 24.52644495925047 C 0.0 **** -0.24
25707 H 46.222571906807644 35.524895800403954 24.905146713678874 H 0.0 **** 0.06
25708 H 45.67380797888208 34.56775898499302 23.507334934019894 H 0.0 **** 0.06
25709 H 45.335456245029135 34.004172061664406 25.16162730764688 H 0.0 **** 0.06
25710 H 46.99974648784678 33.9679612112015 24.532554950793383 H 0.0 **** 0.06
25711 C 85.08644651249617 93.22963969076886 119.21124539097478 C 0.0 **** -0.24
25712 H 85.11037974204234 94.24692363079976 118.8186759123059 H 0.0 **** 0.06
25713 H 84.13189964646574 93.05482797150961 119.70864395284678 H 0.0 **** 0.06
25714 H 85.8987020820357 93.09826709658421 119.92686562376207 H 0.0 **** 0.06
25715 H 85.20570979875356 92.52196653543854 118.39199634662018 H 0.0 **** 0.06
25716 C 39.2942008431302 64.54280301356943 93.55473695035232 C 0.0 **** -0.24
25717 H 39.135563964556525 64.55929011259255 92.47646349434623 H 0.0 **** 0.06
25718 H 38.598899032501805 65.23251627248888 94.0343109274292 H 0.0 **** 0.06
25719 H 40.31739177266684 64.84588165690843 93.77491583131936 H 0.0 **** 0.06
25720 H 39.12412184586074 63.53467738701169 93.93226438835546 H 0.0 **** 0.06
25721 C 66.07303794149419 38.62924041918478 51.42293288809884 C 0.0 **** -0.24
25722 H 65.66326016763188 38.262866251295875 52.364348997750454 H 0.0 **** 0.06
25723 H 65.40954432028263 39.388505464621545 51.00807390702134 H 0.0 **** 0.06
25724 H 66.16133882346227 37.801040494535336 50.71945936680973 H 0.0 **** 0.06
25725 H 67.05772186044351 39.062122354618204 51.59968397286667 H 0.0 **** 0.06
25726 C 66.65221426202089 38.26577256190481 61.76253924387194 C 0.0 **** -0.24
25727 H 67.41519395212657 37.951311092753826 61.05037696502768 H 0.0 **** 0.06
25728 H 66.7377802429802 37.670793898187014 62.67264641668166 H 0.0 **** 0.06
25729 H 65.66513041538369 38.12093185930051 61.324779360614 H 0.0 **** 0.06
25730 H 66.79273153940562 39.31977150792221 62.00241681912479 H 0.0 **** 0.06
25731 C 10.450935120371668 49.908101514379496 102.3271776420928 C 0.0 **** -0.24
25732 H 11.460371261159935 49.93118450804576 101.91587238614358 H 0.0 **** 0.06
25733 H 10.478010668022705 50.217787810239145 103.37217164807498 H 0.0 **** 0.06
25734 H 10.05322383455524 48.89616613342574 102.2574955922828 H 0.0 **** 0.06
25735 H 9.813213164072152 50.588182215953 101.7631944606702 H 0.0 **** 0.06
25736 C 12.622533935853369 56.45887678208243 70.46941253132965 C 0.0 **** -0.24
25737 H 13.004559518574865 55.86465625266919 69.63935437546866 H 0.0 **** 0.06
25738 H 12.761295981469459 57.518950734771295 70.25106514179146 H 0.0 **** 0.06
25739 H 13.163190820607383 56.201541138887876 71.3800390247091 H 0.0 **** 0.06
25740 H 11.56100476049545 56.25193562551436 70.60647936316849 H 0.0 **** 0.06
25741 C 121.70527135703526 66.28874562350157 48.325138305543945 C 0.0 **** -0.24
25742 H 120.9358907815091 66.57363730624257 49.04209948638313 H 0.0 **** 0.06
25743 H 122.05163011032664 65.27851705572309 48.545669579643956 H 0.0 **** 0.06
25744 H 122.54362838847544 66.98362867197093 48.39637253113769 H 0.0 **** 0.06
25745 H 121.29251065403002 66.32053695839332 47.31717550787049 H 0.0 **** 0.06
25746 C 36.74896733824133 81.5648485607135 73.97092537268054 C 0.0 **** -0.24
25747 H 35.87728789417619 82.21667180731802 73.90086386501275 H 0.0 **** 0.06
25748 H 36.78965161318081 80.91778883456399 73.09412169643886 H 0.0 **** 0.06
25749 H 36.674219045355386 80.9533842448773 74.8704915154861 H 0.0 **** 0.06
25750 H 37.65259257085043 82.17141041766251 74.01752150651885 H 0.0 **** 0.06
25751 C 103.88274841569512 114.2918826817782 4.1405451406259886 C 0.0 **** -0.24
25752 H 103.96953843350326 114.42806781840274 3.0622315167211696 H 0.0 **** 0.06
25753 H 104.71970426582698 113.69217757076446 4.498938556936338 H 0.0 **** 0.06
25754 H 102.94651273045736 113.78293878128031 4.368020265924542 H 0.0 **** 0.06
25755 H 103.89617560671127 115.26572700368602 4.631196893473145 H 0.0 **** 0.06
25756 C 101.96308970951668 93.47851163719557 78.0621650959365 C 0.0 **** -0.24
25757 H 101.0946451153917 93.28083258489463 78.69031483446605 H 0.0 **** 0.06
25758 H 102.6751783222087 92.65864938985945 78.15847633846596 H 0.0 **** 0.06
25759 H 102.43490832240172 94.40952032484259 78.37765391485661 H 0.0 **** 0.06
25760 H 101.64713921632097 93.56623689328791 77.02279813580691 H 0.0 **** 0.06
25761 C 92.02387720889496 122.089488360844 16.613031490639855 C 0.0 **** -0.24
25762 H 91.08282358099882 122.48345450236778 16.22981633903032 H 0.0 **** 0.06
25763 H 92.48967285866098 121.46092588607442 15.85323887022247 H 0.0 **** 0.06
25764 H 91.83222289642643 121.49711272404326 17.50757877546789 H 0.0 **** 0.06
25765 H 92.69093844875962 122.91549395474951 16.860062258196308 H 0.0 **** 0.06
25766 C 66.94459566357563 19.628431838078768 43.30001248483558 C 0.0 **** -0.24
25767 H 66.75582862270227 19.223645564159142 42.305481825572826 H 0.0 **** 0.06
25768 H 67.25180248317167 18.823556225638697 43.96812577910583 H 0.0 **** 0.06
25769 H 66.03575481149085 20.09167949293567 43.68273168630992 H 0.0 **** 0.06
25770 H 67.73686384287112 20.37604474732092 43.24343250194556 H 0.0 **** 0.06
25771 C 42.56572801729678 112.46294979621189 78.84516044803445 C 0.0 **** -0.24
25772 H 41.47681740915576 112.42115802763563 78.81593242748284 H 0.0 **** 0.06
25773 H 42.94595663020806 112.72603830560153 77.85782524857683 H 0.0 **** 0.06
25774 H 42.9586566571225 111.49031520962318 79.1394666053659 H 0.0 **** 0.06
25775 H 42.87967545340891 113.21540500669343 79.56863836516703 H 0.0 **** 0.06
25776 C 8.66718433934713 95.43413906261054 9.565892851161504 C 0.0 **** -0.24
25777 H 8.70310211480458 94.4924320404914 10.113499388679802 H 0.0 **** 0.06
25778 H 9.04563517413473 95.28072672408047 8.554775248828264 H 0.0 **** 0.06
25779 H 9.284288913389872 96.1735525252283 10.076337564338846 H 0.0 **** 0.06
25780 H 7.638613382629842 95.78951768787769 9.51964510995695 H 0.0 **** 0.06
25781 C 121.48201802432035 19.39279569356654 14.922961244625697 C 0.0 **** -0.24
25782 H 122.02419914695176 18.606097323713925 14.397557134554916 H 0.0 **** 0.06
25783 H 120.9694520047369 20.026185443424765 14.198046282618066 H 0.0 **** 0.06
25784 H 122.18377937930762 19.99451698097903 15.499889820846192 H 0.0 **** 0.06
25785 H 120.75074973489856 18.943289595796614 15.59416243840468 H 0.0 **** 0.06
25786 C 104.42432940386578 71.66993938944813 2.239774194395352 C 0.0 **** -0.24
25787 H 103.49173320967216 71.88396156757946 2.7633924378154404 H 0.0 **** 0.06
25788 H 104.65505825292897 70.60775448118446 2.330149155416194 H 0.0 **** 0.06
25789 H 105.23036337840082 72.25608653633975 2.6816032380141905 H 0.0 **** 0.06
25790 H 104.31871720386857 71.93207659570487 1.1874010495202754 H 0.0 **** 0.06
25791 C 31.969687773612897 38.45336236801333 72.74479784613732 C 0.0 **** -0.24
25792 H 32.287401143267715 37.41242541970169 72.68281699146763 H 0.0 **** 0.06
25793 H 32.795165581208686 39.06338082893549 73.11238868744061 H 0.0 **** 0.06
25794 H 31.12415908115932 38.535198424450215 73.42851070515934 H 0.0 **** 0.06
25795 H 31.67167024090864 38.80108065545528 71.75558973840629 H 0.0 **** 0.06
25796 C 100.94668292844301 14.212488537998794 70.73218601061183 C 0.0 **** -0.24
25797 H 101.25121753257815 14.061761235106061 69.69635006721666 H 0.0 **** 0.06
25798 H 100.83952761710299 13.245624995505551 71.22365599395403 H 0.0 **** 0.06
25799 H 99.99289862290198 14.73989848303981 70.75689225066571 H 0.0 **** 0.06
25800 H 101.70213980516826 14.802551936827967 71.25155028663494 H 0.0 **** 0.06
25801 C 57.922938342177474 50.46022737507852 54.11934986868215 C 0.0 **** -0.24
25802 H 57.02617851877545 51.03374634352048 53.88461183011219 H 0.0 **** 0.06
25803 H 58.29802714952746 49.98567404101752 53.21190470876982 H 0.0 **** 0.06
25804 H 57.682799677303706 49.69471988210536 54.856774979067325 H 0.0 **** 0.06
25805 H 58.685051949023716 51.12701605239016 54.522748978898676 H 0.0 **** 0.06
25806 C 92.25259843799881 76.72813900299064 89.94923280014979 C 0.0 **** -0.24
25807 H 92.3719343829269 76.87928177802792 91.02245456976115 H 0.0 **** 0.06
25808 H 91.25437037371736 76.33959011729252 89.74673676886212 H 0.0 **** 0.06
25809 H 92.99879988272104 76.01644385465437 89.59795303681344 H 0.0 **** 0.06
25810 H 92.3846030787912 77.67907115234809 89.43281633364975 H 0.0 **** 0.06
25811 C 57.02615205023534 47.76686394892309 62.10928800058255 C 0.0 **** -0.24
25812 H 57.51595287416535 48.61149918673411 61.62530084507833 H 0.0 **** 0.06
25813 H 56.911450070250254 47.97543294090116 63.173732761678906 H 0.0 **** 0.06
25814 H 57.632894454319995 46.87082010868471 61.97729845538203 H 0.0 **** 0.06
25815 H 56.04508523576442 47.60987124780638 61.66199136862588 H 0.0 **** 0.06
25816 C 62.91119915783576 102.78789900572605 0.19753487956700155 C 0.0 **** -0.24
25817 H 63.54764302378269 102.4189256705694 1.001598304479785 H 0.0 **** 0.06
25818 H 62.21729318016195 103.52894934734212 0.5953791470182637 H 0.0 **** 0.06
25819 H 62.35023301474866 101.95732709980152 -0.2306407986562249 H 0.0 **** 0.06
25820 H 63.529702233322276 103.24543739344838 -0.5747550339735881 H 0.0 **** 0.06
25821 C 27.686565720461523 55.72711429657639 21.134754715205304 C 0.0 **** -0.24
25822 H 27.24408382886638 56.389904210951215 20.39162323903991 H 0.0 **** 0.06
25823 H 28.649229277773372 55.365712915650164 20.77072842010604 H 0.0 **** 0.06
25824 H 27.02225580198317 54.88028545929254 21.306523082903 H 0.0 **** 0.06
25825 H 27.831220036670082 56.272075552330875 22.06740656229114 H 0.0 **** 0.06
25826 C 83.23345489534 15.113651081313009 49.393210167641236 C 0.0 **** -0.24
25827 H 83.59594391575581 14.101205074287577 49.214235468556105 H 0.0 **** 0.06
25828 H 83.6634683158139 15.789185072743066 48.65303554623096 H 0.0 **** 0.06
25829 H 83.52850178083585 15.434032269128949 50.39234947321504 H 0.0 **** 0.06
25830 H 82.14596105833454 15.129638196836197 49.311915801776365 H 0.0 **** 0.06
25831 C 113.8140979422118 18.43009086728535 82.20557120870171 C 0.0 **** -0.24
25832 H 113.2947123381048 18.95750701708211 81.40543001414042 H 0.0 **** 0.06
25833 H 113.2001495959005 17.597045806948593 82.54905123379922 H 0.0 **** 0.06
25834 H 113.99575678811266 19.114049645696884 83.03366751678766 H 0.0 **** 0.06
25835 H 114.76580533083026 18.051464503196954 81.83191991890158 H 0.0 **** 0.06
25836 C 35.579122613509576 107.48037263372873 98.35031654518642 C 0.0 **** -0.24
25837 H 35.07396266184058 107.42828244529406 97.3848631437989 H 0.0 **** 0.06
25838 H 35.12188273175188 106.76718589608782 99.03721069729932 H 0.0 **** 0.06
25839 H 35.48497601635072 108.48801248337546 98.75547021308509 H 0.0 **** 0.06
25840 H 36.63370080636684 107.2373305082424 98.22114039510987 H 0.0 **** 0.06
25841 C 10.224693958945778 42.39126683285048 110.96145334644032 C 0.0 **** -0.24
25842 H 10.306647255470523 43.422701497205594 110.61860889156557 H 0.0 **** 0.06
25843 H 9.802996697343929 42.374494381424626 111.96634897469326 H 0.0 **** 0.06
25844 H 11.21441861449864 41.934467521852156 110.97533290252011 H 0.0 **** 0.06
25845 H 9.576947564048908 41.83348645923547 110.28548532547202 H 0.0 **** 0.06
25846 C 36.42714785650753 100.5415401802787 26.89824522969733 C 0.0 **** -0.24
25847 H 35.42092169301492 100.57754809153269 27.315350070858806 H 0.0 **** 0.06
25848 H 37.13597221349488 100.93689911609201 27.626468770024175 H 0.0 **** 0.06
25849 H 36.466058037035 101.1417376857828 25.990117491314386 H 0.0 **** 0.06
25850 H 36.68638530718539 99.50947487678891 26.663323430085796 H 0.0 **** 0.06
25851 C 105.93264008613431 76.9442317078908 67.1168834934914 C 0.0 **** -0.24
25852 H 106.48942896567297 77.8118467935272 67.47020248276681 H 0.0 **** 0.06
25853 H 105.59512647611385 76.35706278817622 67.97055516041996 H 0.0 **** 0.06
25854 H 106.57824418273896 76.33255845472212 66.48579604064497 H 0.0 **** 0.06
25855 H 105.06975030032714 77.27652926861302 66.54003372229181 H 0.0 **** 0.06
25856 C 111.43870641639374 103.54781652828422 23.931538486449085 C 0.0 **** -0.24
25857 H 112.41097234561613 103.85166709687627 23.543295085669712 H 0.0 **** 0.06
25858 H 111.48325473983672 102.5058399884615 24.248599164236992 H 0.0 **** 0.06
25859 H 110.68566675349405 103.65795068316416 23.1502773619342 H 0.0 **** 0.06
25860 H 111.17518335021359 104.17641493229925 24.78162243538435 H 0.0 **** 0.06
25861 C 32.20212520535978 69.85129001296193 19.387381294828685 C 0.0 **** -0.24
25862 H 32.36897973837324 70.33768715756673 20.34927609083445 H 0.0 **** 0.06
25863 H 32.11094464361588 70.60840677423883 18.6083193814149 H 0.0 **** 0.06
25864 H 31.28506600791036 69.2630858627416 19.432993667907397 H 0.0 **** 0.06
25865 H 33.043144960398365 69.19617071106092 19.16237563596013 H 0.0 **** 0.06
25866 C 21.24002587645409 16.718099176162923 44.78598359147506 C 0.0 **** -0.24
25867 H 20.17049345558126 16.542386871299954 44.67619905360144 H 0.0 **** 0.06
25868 H 21.762428528832267 15.761291626598222 44.82358685526813 H 0.0 **** 0.06
25869 H 21.424375970502204 17.269250837905076 45.70776609327058 H 0.0 **** 0.06
25870 H 21.60157936674127 17.297351860568398 43.93652875740625 H 0.0 **** 0.06
25871 C 20.81915963178855 15.996278843043353 20.457041035742453 C 0.0 **** -0.24
25872 H 20.024728459538366 16.7140521956144 20.247039166642192 H 0.0 **** 0.06
25873 H 20.389141380288166 15.102746707114218 20.90987187558821 H 0.0 **** 0.06
25874 H 21.538529054945485 16.442285459344845 21.143631047794194 H 0.0 **** 0.06
25875 H 21.321381385080116 15.728191749982294 19.52721912722862 H 0.0 **** 0.06
25876 C 11.766918453784722 37.975823196808506 9.141297254547638 C 0.0 **** -0.24
25877 H 11.409592548066325 37.596504067889725 8.183596695400666 H 0.0 **** 0.06
25878 H 10.952798137115494 37.95597169806081 9.866184961354321 H 0.0 **** 0.06
25879 H 12.120212202402712 38.999464228982106 9.017661965526003 H 0.0 **** 0.06
25880 H 12.586077290099055 37.34895697333263 9.495943218747158 H 0.0 **** 0.06
25881 C 49.482415477142894 66.24784152098067 97.94771468240177 C 0.0 **** -0.24
25882 H 50.29807035339158 66.32008648405986 98.6667187732022 H 0.0 **** 0.06
25883 H 49.277221112523165 65.19793823528204 97.73544464659557 H 0.0 **** 0.06
25884 H 49.764643497469166 66.75609000989829 97.02590617474777 H 0.0 **** 0.06
25885 H 48.58992917367564 66.71647922836377 98.36218665664003 H 0.0 **** 0.06
25886 C 111.62372101815885 14.660642545138913 36.62479126782382 C 0.0 **** -0.24
25887 H 111.0538824535904 13.836445848876448 36.196643043296746 H 0.0 **** 0.06
25888 H 110.97660684207744 15.251825166348901 37.27243118144879 H 0.0 **** 0.06
25889 H 112.0102423122903 15.290431305921388 35.82275473406481 H 0.0 **** 0.06
25890 H 112.45519551413264 14.263168096194335 37.20614340704565 H 0.0 **** 0.06
25891 C 24.33948707766863 36.757899123951745 6.806566394446122 C 0.0 **** -0.24
25892 H 24.468217380282347 37.82356783627239 6.994251762588021 H 0.0 **** 0.06
25893 H 25.05758756381229 36.432752015374206 6.0539920396584535 H 0.0 **** 0.06
25894 H 23.32744029759445 36.572483363487265 6.447960217004038 H 0.0 **** 0.06
25895 H 24.505548846402398 36.20382750143477 7.7305254112065995 H 0.0 **** 0.06
25896 C 4.570720778001565 33.91011325615477 7.141621990673002 C 0.0 **** -0.24
25897 H 3.749155494736412 33.27481502818892 7.473115272600495 H 0.0 **** 0.06
25898 H 4.972102400321344 33.52421748906332 6.204539079819909 H 0.0 **** 0.06
25899 H 5.355507636021187 33.91360532784914 7.898732668597404 H 0.0 **** 0.06
25900 H 4.206757202081818 34.92595010342908 6.991155765960713 H 0.0 **** 0.06
25901 C 95.67010475250953 5.67961621485847 103.7294878200477 C 0.0 **** -0.24
25902 H 96.16998297673587 4.713565354410008 103.65844818771421 H 0.0 **** 0.06
25903 H 96.2833043933062 6.362230022707109 104.31870066540432 H 0.0 **** 0.06
25904 H 94.70117047933428 5.5526334764327885 104.21129881176469 H 0.0 **** 0.06
25905 H 95.52881719897044 6.088706733577482 102.72978044908555 H 0.0 **** 0.06
25906 C 73.31118944216294 91.22974403578442 8.309523706069854 C 0.0 **** -0.24
25907 H 73.03565686226978 90.20034231254809 8.537604812623016 H 0.0 **** 0.06
25908 H 74.36787205631657 91.38121087621624 8.532359605512767 H 0.0 **** 0.06
25909 H 72.71123641050033 91.90910720364027 8.915996492783194 H 0.0 **** 0.06
25910 H 73.1301274577439 91.42959009396913 7.253966424675639 H 0.0 **** 0.06
25911 C 16.531583798312568 76.61810462189868 74.37495935571181 C 0.0 **** -0.24
25912 H 15.827013436774052 76.86893196806858 75.16753953752101 H 0.0 **** 0.06
25913 H 17.159053687882704 77.48409802894412 74.15972415697175 H 0.0 **** 0.06
25914 H 15.983582577485151 76.33459594936215 73.47655209401779 H 0.0 **** 0.06
25915 H 17.158594915646802 75.7866972859427 74.69687397861858 H 0.0 **** 0.06
25916 C 109.19653319864432 2.252950045010186 83.14598148061901 C 0.0 **** -0.24
25917 H 109.18667257263681 1.983861896164104 84.20165444192935 H 0.0 **** 0.06
25918 H 110.08583671251583 1.8344839461565794 82.67241983504576 H 0.0 **** 0.06
25919 H 109.20844192262595 3.338034442169354 83.04750755083384 H 0.0 **** 0.06
25920 H 108.30571163447647 1.8535979822967068 82.66116089567004 H 0.0 **** 0.06
25921 C 79.19081434189994 4.425781483780554 70.9269604419836 C 0.0 **** -0.24
25922 H 79.99894683879876 4.9325718855052685 70.39838542148314 H 0.0 **** 0.06
25923 H 78.4549397691674 5.159955213054928 71.25534541706273 H 0.0 **** 0.06
25924 H 79.59591317363191 3.9025254595202483 71.7931164326431 H 0.0 **** 0.06
25925 H 78.71480539351151 3.707775136759196 70.2579786917222 H 0.0 **** 0.06
25926 C 16.037972873948164 46.33498972726907 38.283168102371036 C 0.0 **** -0.24
25927 H 16.479940957206793 45.33946871204557 38.284636432837175 H 0.0 **** 0.06
25928 H 16.54614685586526 46.95911865762453 39.01853633400853 H 0.0 **** 0.06
25929 H 14.979966320472471 46.26361115375274 38.53665852843142 H 0.0 **** 0.06
25930 H 16.145896139006652 46.77872725879034 37.29387155729343 H 0.0 **** 0.06
25931 C 66.448742971596 89.5586633153788 119.41697999325086 C 0.0 **** -0.24
25932 H 66.38640882962667 89.21578115181694 118.38469207390543 H 0.0 **** 0.06
25933 H 65.4521338160738 89.82158184392836 119.77274285426489 H 0.0 **** 0.06
25934 H 67.09770502382071 90.43253746610401 119.47138894452306 H 0.0 **** 0.06
25935 H 66.85820316302889 88.76262948045121 120.03956545809118 H 0.0 **** 0.06
25936 C 3.0126911326501613 11.747518934816782 109.13822039863089 C 0.0 **** -0.24
25937 H 3.943669919243348 11.345453186887312 108.7396595955332 H 0.0 **** 0.06
25938 H 2.2628406369578613 10.957642286780128 109.17943000536857 H 0.0 **** 0.06
25939 H 2.6584645396269195 12.551836248071766 108.49279855369261 H 0.0 **** 0.06
25940 H 3.1850633244300752 12.137041778496766 110.1419270058812 H 0.0 **** 0.06
25941 C 119.67556908775106 83.67258484650392 96.6506935935328 C 0.0 **** -0.24
25942 H 119.71838909703882 82.62614303456655 96.95373838226982 H 0.0 **** 0.06
25943 H 120.54718323186859 84.19848058763301 97.04011055820797 H 0.0 **** 0.06
25944 H 118.76832265242928 84.12832922914043 97.04569868398232 H 0.0 **** 0.06
25945 H 119.6696457558578 83.73499619102802 95.56239727386773 H 0.0 **** 0.06
25946 C 102.57432994304364 35.08995071477284 22.40327807168478 C 0.0 **** -0.24
25947 H 102.7180223338319 36.09273277278095 22.000884269315776 H 0.0 **** 0.06
25948 H 102.85847641725377 34.35394780467897 21.652158544486667 H 0.0 **** 0.06
25949 H 101.52646370529135 34.95245778368712 22.669368564165495 H 0.0 **** 0.06
25950 H 103.19454180465789 34.96283475271946 23.291207106740927 H 0.0 **** 0.06
25951 C 121.32219678245542 72.66215290263591 94.11572898146352 C 0.0 **** -0.24
25952 H 121.68599265471266 72.22372663720708 95.04433655952187 H 0.0 **** 0.06
25953 H 120.87093902327535 71.88501054132377 93.49861040956478 H 0.0 **** 0.06
25954 H 122.15419517215173 73.11714084421723 93.57815964825397 H 0.0 **** 0.06
25955 H 120.57633038421704 73.42458886483354 94.34269793618614 H 0.0 **** 0.06
25956 C 118.5528065927287 43.81524420965409 109.16274994381408 C 0.0 **** -0.24
25957 H 117.80962536819533 43.08777485587851 109.48758540563094 H 0.0 **** 0.06
25958 H 119.38789544710983 43.820212037689764 109.86369936418726 H 0.0 **** 0.06
25959 H 118.10046137137886 44.80619620619516 109.12786363382881 H 0.0 **** 0.06
25960 H 118.9136828663589 43.54663943091778 108.16906135505874 H 0.0 **** 0.06
25961 C 50.70453213677346 70.30750191644725 110.5783115927639 C 0.0 **** -0.24
25962 H 51.04408467473638 71.2618706705575 110.17578521284958 H 0.0 **** 0.06
25963 H 50.18741228339047 69.74728257925705 109.79906548158567 H 0.0 **** 0.06
25964 H 50.023995720506925 70.486090230603 111.41073968057793 H 0.0 **** 0.06
25965 H 51.563941367642954 69.73514470868102 110.92804456420782 H 0.0 **** 0.06
25966 C 39.97370831394662 16.56472368061813 108.18513232786881 C 0.0 **** -0.24
25967 H 38.95461486145311 16.85598318945378 108.44013738645046 H 0.0 **** 0.06
25968 H 40.44151454982047 17.356187263964017 107.59923397912101 H 0.0 **** 0.06
25969 H 39.952751627505734 15.644794526796488 107.60123912476485 H 0.0 **** 0.06
25970 H 40.54358649479529 16.401668567103258 109.09933961484498 H 0.0 **** 0.06
25971 C 67.05053400382337 12.506495020798809 10.18988136811106 C 0.0 **** -0.24
25972 H 66.9137629618154 12.77188887779073 11.238245769329808 H 0.0 **** 0.06
25973 H 66.67161584418719 11.498439862381701 10.019138872526014 H 0.0 **** 0.06
25974 H 68.11073703775892 12.544779285143079 9.940179632340175 H 0.0 **** 0.06
25975 H 66.50422945168779 13.211749672003236 9.563383678429375 H 0.0 **** 0.06
25976 C 57.20071813455154 78.83367283357148 14.842659837042063 C 0.0 **** -0.24
25977 H 56.91177790143846 79.74516488697651 15.364829200451041 H 0.0 **** 0.06
25978 H 58.05210154172462 78.37863428567829 15.348972341483176 H 0.0 **** 0.06
25979 H 57.473426655993215 79.07435363855376 13.815305018960998 H 0.0 **** 0.06
25980 H 56.363519633993114 78.1353630160391 14.842187849283178 H 0.0 **** 0.06
25981 C 65.77552245579886 110.17324076532955 8.768618810952205 C 0.0 **** -0.24
25982 H 65.62118345280612 110.20790934424718 7.689781596178335 H 0.0 **** 0.06
25983 H 65.01040958402328 109.54686717412869 9.225784504209741 H 0.0 **** 0.06
25984 H 65.71219945925864 111.1817996891022 9.176469510811728 H 0.0 **** 0.06
25985 H 66.76089248888317 109.75717079336576 8.980528824804168 H 0.0 **** 0.06
25986 C 99.7366863851627 48.04621027186545 80.84686445847186 C 0.0 **** -0.24
25987 H 99.24465702282825 47.59266056557351 81.70640667194655 H 0.0 **** 0.06
25988 H 99.45193084782633 49.096167681711506 80.77784374155564 H 0.0 **** 0.06
25989 H 99.43119702957776 47.52607114868664 79.93793333773166 H 0.0 **** 0.06
25990 H 100.81697629667474 47.968211618278445 80.96423983322106 H 0.0 **** 0.06
25991 C 42.54690755400864 77.34066135590885 46.245631830012336 C 0.0 **** -0.24
25992 H 42.39968483106412 78.41854109037214 46.31474685493971 H 0.0 **** 0.06
25993 H 41.660949850383275 76.88078443552365 45.80749108803169 H 0.0 **** 0.06
25994 H 42.71293135123139 76.93328438073826 47.24325714318185 H 0.0 **** 0.06
25995 H 43.4130801293 77.13245414289199 45.61881617420909 H 0.0 **** 0.06
25996 C 75.33309609443594 78.34273011085745 54.624959942264866 C 0.0 **** -0.24
25997 H 74.74569054053563 78.22026215405683 53.71535980719284 H 0.0 **** 0.06
25998 H 76.00218777613259 77.48964257908335 54.74382623474372 H 0.0 **** 0.06
25999 H 74.66403032686895 78.40134850941959 55.48371429347736 H 0.0 **** 0.06
26000 H 75.92028325036696 79.25856678402519 54.55780669604172 H 0.0 **** 0.06
26001 C 116.32779595219381 6.358348459121032 44.251169924875796 C 0.0 **** -0.24
26002 H 116.30537868773706 6.779873285990618 45.25628903973799 H 0.0 **** 0.06
26003 H 115.73515765133314 6.983267446218008 43.58195746549299 H 0.0 **** 0.06
26004 H 115.91297973965143 5.350701750148858 44.27021543037813 H 0.0 **** 0.06
26005 H 117.35796049861304 6.320216938352985 43.89690430585986 H 0.0 **** 0.06
26006 C 53.18339766137751 118.64685411727727 54.62596426385275 C 0.0 **** -0.24
26007 H 53.35292061138972 117.8638008717973 55.365803285797 H 0.0 **** 0.06
26008 H 52.84801796316856 118.19735367116412 53.69129162685121 H 0.0 **** 0.06
26009 H 54.11119102612014 119.19215841618482 54.45485673652166 H 0.0 **** 0.06
26010 H 52.42108880768018 119.33417445230991 54.99283085875152 H 0.0 **** 0.06
26011 C 93.67044836784646 112.39881675862793 14.08309636504626 C 0.0 **** -0.24
26012 H 94.40870422538842 113.19903066340996 14.035429829989909 H 0.0 **** 0.06
26013 H 94.01478631235929 111.62945706590762 14.774527632623915 H 0.0 **** 0.06
26014 H 93.53915583670317 111.96646730762856 13.092034179271735 H 0.0 **** 0.06
26015 H 92.72057815695862 112.802516794511 14.43286194739872 H 0.0 **** 0.06
26016 C 49.590378112599645 44.14492526456877 73.14549245861284 C 0.0 **** -0.24
26017 H 49.25373309146979 44.76461638681664 73.97611820251797 H 0.0 **** 0.06
26018 H 50.679203953738494 44.10243864465181 73.14145974680216 H 0.0 **** 0.06
26019 H 49.239092253179564 44.574099113219575 72.20637890798537 H 0.0 **** 0.06
26020 H 49.187042274859095 43.138343026336514 73.25804268734461 H 0.0 **** 0.06
26021 C 55.97194298440028 45.13492465054431 56.929858416461194 C 0.0 **** -0.24
26022 H 55.276749140277694 45.95437202163959 56.74247710926961 H 0.0 **** 0.06
26023 H 56.296522194545496 44.71062957892447 55.979854655644154 H 0.0 **** 0.06
26024 H 55.47611958519207 44.36590889420604 57.52168104004348 H 0.0 **** 0.06
26025 H 56.83799667776058 45.51173976867482 57.4750460547771 H 0.0 **** 0.06
26026 C 42.74189283755027 64.57206766524746 66.35921916624667 C 0.0 **** -0.24
26027 H 43.02309658291182 65.61527718416315 66.50581222213162 H 0.0 **** 0.06
26028 H 42.90447054231669 64.01854205994104 67.28543413464007 H 0.0 **** 0.06
26029 H 43.352115411420954 64.14000800524471 65.56559265868574 H 0.0 **** 0.06
26030 H 41.69007741179226 64.51412994675024 66.08109221649187 H 0.0 **** 0.06
26031 C 94.05895410659426 48.38927766456152 57.335174754166786 C 0.0 **** -0.24
26032 H 93.92356621255445 49.19213415489577 58.0591952291436 H 0.0 **** 0.06
26033 H 93.13767125267248 48.25135322091177 56.76853737243357 H 0.0 **** 0.06
26034 H 94.30522444177754 47.46590839100736 57.85944590230605 H 0.0 **** 0.06
26035 H 94.86935451937265 48.647714891431235 56.65352051278387 H 0.0 **** 0.06
26036 C 111.46456184318612 23.20566693731459 86.4175371386537 C 0.0 **** -0.24
26037 H 112.13332375893647 22.34617142562476 86.46718704646008 H 0.0 **** 0.06
26038 H 110.96291627963089 23.330953035167283 87.37687974066404 H 0.0 **** 0.06
26039 H 110.72151151066771 23.042017603134667 85.63743317601455 H 0.0 **** 0.06
26040 H 112.04139412077464 24.101247822697218 86.1885797596716 H 0.0 **** 0.06
26041 C 69.18399493295979 113.78854945331037 115.1751108382346 C 0.0 **** -0.24
26042 H 70.17104881730512 114.06139630917252 114.80224848831439 H 0.0 **** 0.06
26043 H 69.16038295877533 113.90845724270332 116.25847077554258 H 0.0 **** 0.06
26044 H 68.97312819275587 112.75053089393198 114.92007602596694 H 0.0 **** 0.06
26045 H 68.43287425110816 114.43487486601924 114.72130879159293 H 0.0 **** 0.06
26046 C 64.16771519940559 48.377408158011264 41.23795785464597 C 0.0 **** -0.24
26047 H 64.49026485861879 49.37246329198018 40.92980986436021 H 0.0 **** 0.06
26048 H 64.57942386950808 48.150691843915894 42.222291085007896 H 0.0 **** 0.06
26049 H 64.52359099354865 47.64133846648423 40.51675470430001 H 0.0 **** 0.06
26050 H 63.07951785416042 48.34615471872797 41.28250934858812 H 0.0 **** 0.06
26051 C 5.039200455412242 100.24222430251803 65.19709104813668 C 0.0 **** -0.24
26052 H 4.281858716833428 99.46361426948164 65.27840489994591 H 0.0 **** 0.06
26053 H 5.2657810342593585 100.63426362322338 66.18895927641651 H 0.0 **** 0.06
26054 H 4.66600852444421 101.04818090046632 64.56494795280986 H 0.0 **** 0.06
26055 H 5.943670418516277 99.82447232714895 64.75580037466361 H 0.0 **** 0.06
26056 C 25.056365696976968 48.427809702363106 56.71119345047697 C 0.0 **** -0.24
26057 H 25.977946812992542 47.846272174102296 56.71593122812811 H 0.0 **** 0.06
26058 H 24.45096155805993 48.14175397316569 55.85021135853552 H 0.0 **** 0.06
26059 H 25.296516093763813 49.48970375771938 56.65000535391974 H 0.0 **** 0.06
26060 H 24.499414875987256 48.23343748727484 57.62735845270157 H 0.0 **** 0.06
26061 C 75.55431409499974 86.87210397896322 80.24062681373672 C 0.0 **** -0.24
26062 H 74.62939317761214 87.26022943161499 79.81291182450695 H 0.0 **** 0.06
26063 H 75.86090117939267 85.98035142181686 79.69263416396291 H 0.0 **** 0.06
26064 H 75.39193874812494 86.61761236856944 81.28788436740416 H 0.0 **** 0.06
26065 H 76.33386785552173 87.63030335020673 80.1671641055666 H 0.0 **** 0.06
26066 C 117.35276266068345 93.82836711808301 49.10478512394662 C 0.0 **** -0.24
26067 H 116.45321806199664 94.19363540340095 49.60026743839364 H 0.0 **** 0.06
26068 H 117.92199345349064 93.20630759795898 49.79658384365689 H 0.0 **** 0.06
26069 H 117.96410676260498 94.67442439384217 48.78993494253356 H 0.0 **** 0.06
26070 H 117.07261325301727 93.23761236016657 48.23244329064018 H 0.0 **** 0.06
26071 C 53.83302489463483 15.891137058703933 69.87886996866717 C 0.0 **** -0.24
26072 H 52.83833851948219 16.331202783323622 69.94112940367671 H 0.0 **** 0.06
26073 H 54.501405625972495 16.576643438286037 69.35747630457593 H 0.0 **** 0.06
26074 H 53.77996158499121 14.949879384014768 69.33218781369524 H 0.0 **** 0.06
26075 H 54.212554474793365 15.706494760998716 70.88375535477553 H 0.0 **** 0.06
26076 C 79.79937956342647 60.6127957579319 104.48001886960915 C 0.0 **** -0.24
26077 H 79.31587808215943 59.656089757123304 104.28189242883556 H 0.0 **** 0.06
26078 H 79.6140045386974 60.90600302548261 105.51333862968542 H 0.0 **** 0.06
26079 H 79.39576423440647 61.36954433940769 103.80846150493096 H 0.0 **** 0.06
26080 H 80.8730540143454 60.51765198620904 104.31650437154457 H 0.0 **** 0.06
26081 C 99.00746521792516 96.37975465238856 73.38872616074431 C 0.0 **** -0.24
26082 H 99.92975633842141 96.90628055338232 73.63384181564726 H 0.0 **** 0.06
26083 H 98.21183677521279 97.1053458329967 73.21127726695457 H 0.0 **** 0.06
26084 H 98.72870834033952 95.7307108772375 74.21799320413373 H 0.0 **** 0.06
26085 H 99.15909830763633 95.78006213286048 72.4911937535199 H 0.0 **** 0.06
26086 C 85.07419958305712 113.30372810865401 43.50614855899813 C 0.0 **** -0.24
26087 H 85.82887926065504 113.70940746301943 44.18029320358051 H 0.0 **** 0.06
26088 H 85.46014001608873 112.40476203101048 43.02650593230153 H 0.0 **** 0.06
26089 H 84.83032968828934 114.04584110949332 42.746194035958865 H 0.0 **** 0.06
26090 H 84.17665305377051 113.05551642522329 44.07383455759476 H 0.0 **** 0.06
26091 C 89.86490154932989 2.2720374226056776 59.657612733175455 C 0.0 **** -0.24
26092 H 90.3008948878173 2.953549777600415 58.926775624363756 H 0.0 **** 0.06
26093 H 88.81473216125772 2.5234865335841903 59.80637340059613 H 0.0 **** 0.06
26094 H 90.39872592100008 2.363689501869345 60.6031858561505 H 0.0 **** 0.06
26095 H 89.94579384089513 1.2483957539716926 59.291933501082326 H 0.0 **** 0.06
26096 C 60.38305764396222 18.384824422745453 62.00738525547098 C 0.0 **** -0.24
26097 H 61.19062297017092 18.823052628607655 62.59372083058139 H 0.0 **** 0.06
26098 H 60.796768194641004 17.89996411665473 61.12334386801393 H 0.0 **** 0.06
26099 H 59.68981330604328 19.168948154948026 61.70189969736032 H 0.0 **** 0.06
26100 H 59.85401079519244 17.647843508629308 62.612502396316756 H 0.0 **** 0.06
26101 C 4.76044402740979 57.34437545778862 96.19315564969264 C 0.0 **** -0.24
26102 H 5.38497913116845 57.05018797281648 95.3489940431121 H 0.0 **** 0.06
26103 H 3.7129554288314353 57.32937012751825 95.89252366492548 H 0.0 **** 0.06
26104 H 5.033389744384976 58.350474681560534 96.51303089046706 H 0.0 **** 0.06
26105 H 4.91309526353848 56.647046187866344 97.01716089466203 H 0.0 **** 0.06
26106 C 116.10092349888001 73.2831609591972 101.68297269872488 C 0.0 **** -0.24
26107 H 116.83833765662128 73.38426977900832 102.47907098249465 H 0.0 **** 0.06
26108 H 116.1762955197628 74.13548495144619 101.00723085700037 H 0.0 **** 0.06
26109 H 115.10090980613788 73.2501583207042 102.11634391974235 H 0.0 **** 0.06
26110 H 116.28735834488717 72.36242817678183 101.13075509266065 H 0.0 **** 0.06
26111 C 83.74159430966935 59.020505774727845 102.30978338966469 C 0.0 **** -0.24
26112 H 84.73087258777059 58.807517861094546 101.90318427980407 H 0.0 **** 0.06
26113 H 83.19946162946698 59.67128409740538 101.62305789024995 H 0.0 **** 0.06
26114 H 83.84517135477205 59.51646107972862 103.27466018862572 H 0.0 **** 0.06
26115 H 83.1921739764413 58.087467682159094 102.43733485847685 H 0.0 **** 0.06
26116 C 57.62428622936915 42.05806473575524 24.449111116719962 C 0.0 **** -0.24
26117 H 58.16270970289844 42.723989740174034 25.123381221978946 H 0.0 **** 0.06
26118 H 56.877133950119486 42.628188447111484 23.895903540814174 H 0.0 **** 0.06
26119 H 57.13114994914477 41.27759907426875 25.027669696603596 H 0.0 **** 0.06
26120 H 58.326481513222745 41.60332827989629 23.749907495330604 H 0.0 **** 0.06
26121 C 73.2238035280426 47.552012067179454 9.291535796784501 C 0.0 **** -0.24
26122 H 73.14572601527834 46.46624462702274 9.23335408120197 H 0.0 **** 0.06
26123 H 73.82705585716695 47.9176542288591 8.460866464723484 H 0.0 **** 0.06
26124 H 73.69478316054409 47.8322872776935 10.233729047320168 H 0.0 **** 0.06
26125 H 72.22774396899979 47.99116511407981 9.238904377419868 H 0.0 **** 0.06
26126 C 46.465264708651944 109.3750659049922 81.81681701637316 C 0.0 **** -0.24
26127 H 46.068367978813654 109.06176063845868 82.78220963125239 H 0.0 **** 0.06
26128 H 46.05123289566342 110.34849110641329 81.55245134762507 H 0.0 **** 0.06
26129 H 46.19025987257632 108.64408775855983 81.05668913296194 H 0.0 **** 0.06
26130 H 47.55203764595694 109.44671101069028 81.87674017661888 H 0.0 **** 0.06
26131 C 84.86220466443945 38.14584383264159 17.77333565543961 C 0.0 **** -0.24
26132 H 85.20081583248796 38.12465804399952 16.73783301048769 H 0.0 **** 0.06
26133 H 84.8508341917748 37.13120894204994 18.172864056645494 H 0.0 **** 0.06
26134 H 83.85618843101915 38.56436328675403 17.817176184704067 H 0.0 **** 0.06
26135 H 85.53924058933265 38.76240777274958 18.364273361880464 H 0.0 **** 0.06
26136 C 70.37491812612143 34.78470553242528 56.74565293165469 C 0.0 **** -0.24
26137 H 71.08617864611602 34.822572321229416 55.9208907369424 H 0.0 **** 0.06
26138 H 69.45552736564935 35.294796047806756 56.455369422420205 H 0.0 **** 0.06
26139 H 70.80376948051943 35.27760175048036 57.617930377393606 H 0.0 **** 0.06
26140 H 70.15401093981006 33.74524991412039 56.98741550172056 H 0.0 **** 0.06
26141 C 62.349202643355795 42.063105214598465 108.79030347458036 C 0.0 **** -0.24
26142 H 61.474220927423744 41.512522551988155 109.13689242362949 H 0.0 **** 0.06
26143 H 62.83130667806836 42.54786622788578 109.63915127066088 H 0.0 **** 0.06
26144 H 62.03893146497899 42.81877403516424 108.06803163692535 H 0.0 **** 0.06
26145 H 63.04839397160072 41.374112171806445 108.31840719318012 H 0.0 **** 0.06
26146 C 69.13794628003842 90.59214811132875 81.23083641743787 C 0.0 **** -0.24
26147 H 68.4091062074678 90.0693650925488 81.84906705078893 H 0.0 **** 0.06
26148 H 68.94462875782625 90.37627787834384 80.1793438634705 H 0.0 **** 0.06
26149 H 70.1422408719443 90.25632090441465 81.49205026348164 H 0.0 **** 0.06
26150 H 69.05752866602842 91.66525070692444 81.40326592791229 H 0.0 **** 0.06
26151 C 48.0288811886457 7.09487568137655 97.37927702486837 C 0.0 **** -0.24
26152 H 47.99438003057071 8.09924608370983 96.95836867484655 H 0.0 **** 0.06
26153 H 48.005815218441995 6.362201112310601 96.57141740181686 H 0.0 **** 0.06
26154 H 47.16738814882194 6.944182883165428 98.03107963482569 H 0.0 **** 0.06
26155 H 48.94568322389824 6.972740438190723 97.95462391903311 H 0.0 **** 0.06
26156 C 33.31419723107601 5.165236593928967 34.07472547381573 C 0.0 **** -0.24
26157 H 32.890334335412405 4.904542433499245 33.104429135149104 H 0.0 **** 0.06
26158 H 34.07496841436412 4.433234270447514 34.34642190707311 H 0.0 **** 0.06
26159 H 32.52497746758414 5.165600228408692 34.82696492828126 H 0.0 **** 0.06
26160 H 33.76463087911861 6.156237590066468 34.020249107312566 H 0.0 **** 0.06
26161 C 99.74613529967954 51.53133802807153 7.253266761768259 C 0.0 **** -0.24
26162 H 99.0826104685622 52.37273478603596 7.054867180106243 H 0.0 **** 0.06
26163 H 99.90970908930876 50.97361206607554 6.33090537839513 H 0.0 **** 0.06
26164 H 99.29061017837222 50.87775048782722 7.997475968817184 H 0.0 **** 0.06
26165 H 100.69883093234105 51.90147859203959 7.629350543022241 H 0.0 **** 0.06
26166 C 103.79684913940531 67.47997239059643 42.00791679518208 C 0.0 **** -0.24
26167 H 104.77887613266006 67.86668386145112 42.28349881606239 H 0.0 **** 0.06
26168 H 103.36639950291604 66.94627982953017 42.855697740521954 H 0.0 **** 0.06
26169 H 103.89896432701065 66.79886418647993 41.163255197601664 H 0.0 **** 0.06
26170 H 103.14494410277683 68.3082858199947 41.73054013702173 H 0.0 **** 0.06
26171 C 98.14863224317901 0.07942825722737723 22.256560393212695 C 0.0 **** -0.24
26172 H 97.06096402518551 0.015090548636180756 22.30625668112569 H 0.0 **** 0.06
26173 H 98.50568315258033 -0.47861599222810014 21.39025071151776 H 0.0 **** 0.06
26174 H 98.57861867075337 -0.3451427496048751 23.16396509085221 H 0.0 **** 0.06
26175 H 98.44636342838572 1.1234604683979654 22.166017903022222 H 0.0 **** 0.06
26176 C 57.57474943154324 55.02143219884345 96.66357525919219 C 0.0 **** -0.24
26177 H 57.77527328489276 53.98066387993385 96.91428129676788 H 0.0 **** 0.06
26178 H 58.41888566862616 55.43080474580166 96.1081697412441 H 0.0 **** 0.06
26179 H 57.42963530520336 55.59417244184025 97.57995818950101 H 0.0 **** 0.06
26180 H 56.67384153544566 55.0802295515869 96.05224555853434 H 0.0 **** 0.06
26181 C 78.39406655380515 3.2121388142327874 53.823711264656716 C 0.0 **** -0.24
26182 H 79.45934888314298 3.4053368933639376 53.69647839401403 H 0.0 **** 0.06
26183 H 78.23162780973996 2.6658147857801566 54.753480541226146 H 0.0 **** 0.06
26184 H 78.02998844178961 2.6179736712472135 52.98494604331332 H 0.0 **** 0.06
26185 H 77.85426810346291 4.158776722199022 53.859228448227775 H 0.0 **** 0.06
26186 C 62.884067832601936 40.83643354143942 46.53670538951931 C 0.0 **** -0.24
26187 H 63.53007357126605 40.67524766564753 45.67320271154796 H 0.0 **** 0.06
26188 H 63.393964357385364 40.497466983538345 47.43955113640567 H 0.0 **** 0.06
26189 H 61.9591978131536 40.27436776728047 46.40831292784213 H 0.0 **** 0.06
26190 H 62.654716554457416 41.89826522361278 46.6255962935341 H 0.0 **** 0.06
26191 C 11.3677126865922 120.67134844400269 7.801227588429185 C 0.0 **** -0.24
26192 H 10.90362884974897 120.73351115957348 6.81624728818754 H 0.0 **** 0.06
26193 H 12.448278404964128 120.57909648898993 7.687616469292394 H 0.0 **** 0.06
26194 H 10.982298419797303 119.80002042937856 8.329946245509902 H 0.0 **** 0.06
26195 H 11.136637690023747 121.57280119979038 8.368651061215303 H 0.0 **** 0.06
26196 C 0.8422345898061394 119.23242012513207 18.272407677612662 C 0.0 **** -0.24
26197 H 1.8746661224687955 119.54675015434881 18.4242887976107 H 0.0 **** 0.06
26198 H 0.3095523629119157 119.99618524523785 17.705184920636057 H 0.0 **** 0.06
26199 H 0.3595455802502556 119.09333926199626 19.23943142464384 H 0.0 **** 0.06
26200 H 0.8270891138929528 118.29238733457194 17.720181150096224 H 0.0 **** 0.06
26201 C 35.447726014787975 56.34727536143254 74.96977710372664 C 0.0 **** -0.24
26202 H 35.903190406250644 56.36298582657423 75.96052104814427 H 0.0 **** 0.06
26203 H 34.64400576777899 55.611367342616575 74.95133073788375 H 0.0 **** 0.06
26204 H 36.20135573502529 56.08165108263111 74.22874465447748 H 0.0 **** 0.06
26205 H 35.04435376946225 57.333392788774745 74.74094234478761 H 0.0 **** 0.06
26206 C 37.34013936490149 28.611038825537662 45.231152039838555 C 0.0 **** -0.24
26207 H 36.70707088102046 29.406999304057763 45.62293172889596 H 0.0 **** 0.06
26208 H 38.22343849163116 28.506585366598983 45.86151564769734 H 0.0 **** 0.06
26209 H 37.64487315541808 28.85748180795764 44.214520715971595 H 0.0 **** 0.06
26210 H 36.78330403917397 27.673120247724512 45.226864424825806 H 0.0 **** 0.06
26211 C 73.03636461308432 83.1743270353561 70.88707364350955 C 0.0 **** -0.24
26212 H 73.50667650083702 84.12031011423366 71.15457662634384 H 0.0 **** 0.06
26213 H 71.95251774589605 83.28954279357521 70.90280369955732 H 0.0 **** 0.06
26214 H 73.33121362496303 82.40735265409 71.60433968500263 H 0.0 **** 0.06
26215 H 73.35715198103856 82.87972568911209 69.88777556436787 H 0.0 **** 0.06
26216 C 51.673064044728335 78.2778320457723 38.97041119364145 C 0.0 **** -0.24
26217 H 52.29099162759593 77.49445698294033 38.530288251109596 H 0.0 **** 0.06
26218 H 50.652563597719194 78.18584869321245 38.60046936883461 H 0.0 **** 0.06
26219 H 52.07386367330318 79.25361051675168 38.69482600277939 H 0.0 **** 0.06
26220 H 51.677669032166904 78.17583685093172 40.05535352909088 H 0.0 **** 0.06
26221 C 118.31006032159772 50.31902131081537 89.1215801231505 C 0.0 **** -0.24
26222 H 119.35249454772392 50.25298479291564 88.81031627815821 H 0.0 **** 0.06
26223 H 118.02431665642008 51.366756432322205 89.21412629724031 H 0.0 **** 0.06
26224 H 118.18592429600588 49.821758952060094 90.08376022235393 H 0.0 **** 0.06
26225 H 117.67777128259493 49.833978189305355 88.37736851658622 H 0.0 **** 0.06
26226 C 85.06446421176148 101.80577748563249 56.29322447561001 C 0.0 **** -0.24
26227 H 85.79100725522704 102.55497751525377 55.9785346983876 H 0.0 **** 0.06
26228 H 85.58781236401927 100.91575570781978 56.64101034879628 H 0.0 **** 0.06
26229 H 84.42449774076607 101.54509851002629 55.45022950557131 H 0.0 **** 0.06
26230 H 84.45383170413851 102.20878281145733 57.10132458619571 H 0.0 **** 0.06
26231 C 98.9293024711942 98.68489299724217 109.1733947046327 C 0.0 **** -0.24
26232 H 99.08737562954059 99.58769712298962 108.58445952261451 H 0.0 **** 0.06
26233 H 97.8654259624218 98.56617183562565 109.37842197425817 H 0.0 **** 0.06
26234 H 99.4741194259534 98.76567284752181 110.11451918330664 H 0.0 **** 0.06
26235 H 99.29193463115712 97.82069553592262 108.61753793372537 H 0.0 **** 0.06
26236 C 106.82353614171828 61.45812632016924 109.21013006367676 C 0.0 **** -0.24
26237 H 107.6093893060814 60.725849379262485 109.02265350050942 H 0.0 **** 0.06
26238 H 107.07958182572037 62.04834706248906 110.08980966039579 H 0.0 **** 0.06
26239 H 105.87976010937152 60.941799053111396 109.38078172654761 H 0.0 **** 0.06
26240 H 106.72756328529042 62.11620668718868 108.34614128658805 H 0.0 **** 0.06
26241 C 29.06863626645088 15.13186075093273 33.573797143994696 C 0.0 **** -0.24
26242 H 29.60484577708681 15.815594379015323 32.91430118621014 H 0.0 **** 0.06
26243 H 29.719269347808023 14.838194265894288 34.397934119877505 H 0.0 **** 0.06
26244 H 28.76955312787507 14.246795255282336 33.013532568078915 H 0.0 **** 0.06
26245 H 28.18254587212502 15.628979136143641 33.96857208599519 H 0.0 **** 0.06
26246 C 96.33946601588912 66.70656957103864 81.5319958944589 C 0.0 **** -0.24
26247 H 96.12402009189606 65.98977687794473 82.32431868947211 H 0.0 **** 0.06
26248 H 96.48430811906076 66.17424740934737 80.59070149987235 H 0.0 **** 0.06
26249 H 97.24466947321258 67.26047012282706 81.77975380007067 H 0.0 **** 0.06
26250 H 95.50441039253212 67.39968522942218 81.43203141154456 H 0.0 **** 0.06
26251 C 15.617924447735845 88.92881958244982 60.222155520662085 C 0.0 **** -0.24
26252 H 14.800704070350946 89.55204396433729 59.859999041400044 H 0.0 **** 0.06
26253 H 16.16096570773118 88.51181684528015 59.373705718461764 H 0.0 **** 0.06
26254 H 15.214809689593835 88.11866113331689 60.82996216628865 H 0.0 **** 0.06
26255 H 16.294352600164018 89.53405203593815 60.825711452719446 H 0.0 **** 0.06
26256 C 51.36328899280889 100.45050736791376 36.141428970274234 C 0.0 **** -0.24
26257 H 51.346412233015855 101.36144308751264 36.73937494814953 H 0.0 **** 0.06
26258 H 50.44354933493901 100.37923405019271 35.560913510279676 H 0.0 **** 0.06
26259 H 51.446240635824125 99.58546620504416 36.80052002826528 H 0.0 **** 0.06
26260 H 52.21887628979317 100.47559642381879 35.46696176148956 H 0.0 **** 0.06
26261 C 66.51886417893346 107.54582835470305 99.36983963548968 C 0.0 **** -0.24
26262 H 67.57041263732447 107.38753095892034 99.60900254687476 H 0.0 **** 0.06
26263 H 66.0265235496397 106.58163976936916 99.24074958812503 H 0.0 **** 0.06
26264 H 66.43878073146053 108.12125582469781 98.44769106535117 H 0.0 **** 0.06
26265 H 66.04059211985239 108.0925035652399 100.18227126660796 H 0.0 **** 0.06
26266 C 90.16493589184427 9.709732183576538 41.83548352688477 C 0.0 **** -0.24
26267 H 90.48236161329848 10.469440041337862 41.121528356029 H 0.0 **** 0.06
26268 H 89.86509105334201 8.809016676411364 41.29879288975955 H 0.0 **** 0.06
26269 H 89.32187109111118 10.085605325030453 42.41475567724317 H 0.0 **** 0.06
26270 H 90.99194143455026 9.47412114100398 42.506498048050986 H 0.0 **** 0.06
26271 C 5.104231594772372 75.82772477245678 55.63791261786105 C 0.0 **** -0.24
26272 H 5.8758537261901544 76.06773828724707 56.36954909801639 H 0.0 **** 0.06
26273 H 4.452257581506043 75.05135967486518 56.03873960189995 H 0.0 **** 0.06
26274 H 5.571738048164104 75.47198713009993 54.720226654130386 H 0.0 **** 0.06
26275 H 4.516566607447865 76.72059422189457 55.42349675459977 H 0.0 **** 0.06
26276 C 20.24835057241711 78.0876329274856 96.49055454955996 C 0.0 **** -0.24
26277 H 19.199346266992166 78.33372284516145 96.65465463311455 H 0.0 **** 0.06
26278 H 20.662014566198593 77.64126944714062 97.3947762401302 H 0.0 **** 0.06
26279 H 20.800438454582547 78.99526285518391 96.24736739266848 H 0.0 **** 0.06
26280 H 20.330704795907366 77.3792590350927 95.66581739351022 H 0.0 **** 0.06
26281 C 61.33014020133245 1.8377249161448361 14.02445742674658 C 0.0 **** -0.24
26282 H 60.35855595421682 1.547334059835265 14.423227143380615 H 0.0 **** 0.06
26283 H 61.29020246977988 2.874429658725745 13.689343395284084 H 0.0 **** 0.06
26284 H 61.58539054722372 1.1936346846996884 13.183915294844653 H 0.0 **** 0.06
26285 H 62.08719990329087 1.7378357392441046 14.803055498653833 H 0.0 **** 0.06
26286 C 87.03971025518376 110.23102025553021 47.43824499074687 C 0.0 **** -0.24
26287 H 86.17442451913507 109.61105313496194 47.675092100155084 H 0.0 **** 0.06
26288 H 86.73287111440277 111.27564257184457 47.38389335512812 H 0.0 **** 0.06
26289 H 87.45421268548864 109.9234382230012 46.47811626668462 H 0.0 **** 0.06
26290 H 87.79440862300362 110.11270006805717 48.214932034636334 H 0.0 **** 0.06
26291 C 14.67941483974522 87.03460858461128 77.27390018596554 C 0.0 **** -0.24
26292 H 15.19258864859573 86.07400044094035 77.32845126640356 H 0.0 **** 0.06
26293 H 14.053824410438303 87.0612199445597 76.38194191629273 H 0.0 **** 0.06
26294 H 15.414845655339136 87.8375591221141 77.22596202914573 H 0.0 **** 0.06
26295 H 14.056777823116935 87.16370378082343 78.15947216584615 H 0.0 **** 0.06
26296 C 72.2043616132311 60.062600489272135 61.59896854846176 C 0.0 **** -0.24
26297 H 72.00987139802817 59.00065769555655 61.44471467574835 H 0.0 **** 0.06
26298 H 71.60250516379108 60.64669625400514 60.902778143638564 H 0.0 **** 0.06
26299 H 73.26036125699096 60.26584526813003 61.426668427626986 H 0.0 **** 0.06
26300 H 71.9440976516396 60.33355589943037 62.62228569280611 H 0.0 **** 0.06
26301 C 120.23092402499756 116.4662339531857 66.20685940372454 C 0.0 **** -0.24
26302 H 119.25804731720615 116.91034515114913 65.99604363580687 H 0.0 **** 0.06
26303 H 120.93608798351386 116.74952631463808 65.42536060849181 H 0.0 **** 0.06
26304 H 120.13590857468154 115.3806853893723 66.2349221207777 H 0.0 **** 0.06
26305 H 120.59243016668322 116.82390291148454 67.17058203728175 H 0.0 **** 0.06
26306 C 100.86234780601063 16.682870079922825 76.49656225065391 C 0.0 **** -0.24
26307 H 101.8162482648348 16.156772585734867 76.45397711799035 H 0.0 **** 0.06
26308 H 100.35507845047852 16.59316695765065 75.53576086509301 H 0.0 **** 0.06
26309 H 101.03914151357273 17.736038977146844 76.71743879874745 H 0.0 **** 0.06
26310 H 100.24165391311158 16.24665477270685 77.27861044152687 H 0.0 **** 0.06
26311 C 30.394708982998566 80.24615820164684 50.201374616651464 C 0.0 **** -0.24
26312 H 30.36545031114062 79.6720652716939 51.126908683316856 H 0.0 **** 0.06
26313 H 30.69812571831244 79.59628531847986 49.38025423617813 H 0.0 **** 0.06
26314 H 31.11059664810122 81.06275942114678 50.30338696634223 H 0.0 **** 0.06
26315 H 29.405002094472252 80.6548344193325 49.99535471014207 H 0.0 **** 0.06
26316 C 77.50460044635943 19.40335617135532 59.48148400840461 C 0.0 **** -0.24
26317 H 78.1257000959038 18.9795965318342 58.69317502830842 H 0.0 **** 0.06
26318 H 78.055080712251 20.194065262261763 59.992034480501275 H 0.0 **** 0.06
26319 H 77.24082323088331 18.623401332554746 60.19532021087244 H 0.0 **** 0.06
26320 H 76.59552174178876 19.81764662344124 59.044094559638495 H 0.0 **** 0.06
26321 C 58.47200251810639 69.55898189350225 78.7798636047861 C 0.0 **** -0.24
26322 H 58.85716345222414 68.82466369059603 79.4872425362953 H 0.0 **** 0.06
26323 H 57.49486813975486 69.9084702754837 79.11403187742556 H 0.0 **** 0.06
26324 H 58.37708794827401 69.09951390719584 77.79616268196278 H 0.0 **** 0.06
26325 H 59.159735656650355 70.40214909274891 78.72193013672222 H 0.0 **** 0.06
26326 C 59.363045724229664 5.9649837502984155 19.3591642765456 C 0.0 **** -0.24
26327 H 58.441403003166045 6.511177899426059 19.560218446836984 H 0.0 **** 0.06
26328 H 59.53922803738874 5.932034484905955 18.283875811752665 H 0.0 **** 0.06
26329 H 59.274084117469954 4.948484139536902 19.743425313002007 H 0.0 **** 0.06
26330 H 60.19708473314864 6.466886622700969 19.849298491110176 H 0.0 **** 0.06
26331 C 115.07082287648443 39.91452858953912 100.39697537266747 C 0.0 **** -0.24
26332 H 114.1118079545543 40.422472291559814 100.28620168842536 H 0.0 **** 0.06
26333 H 115.10016309971728 39.40282810120661 101.3594622271373 H 0.0 **** 0.06
26334 H 115.87673386281182 40.645903000153425 100.34907960665265 H 0.0 **** 0.06
26335 H 115.19082946145552 39.186575255185545 99.59482297257853 H 0.0 **** 0.06
26336 C 104.0324294900552 5.092928048476907 43.747407825166505 C 0.0 **** -0.24
26337 H 103.11358516149636 5.372942531375799 44.2626447814593 H 0.0 **** 0.06
26338 H 104.65428718664342 5.9787705110897775 43.609565904914064 H 0.0 **** 0.06
26339 H 103.78752276121315 4.666323568842287 42.77513142612071 H 0.0 **** 0.06
26340 H 104.57321632262071 4.358229863240439 44.34210117843716 H 0.0 **** 0.06
26341 C 101.12458694345656 66.9356847781878 50.5421391935881 C 0.0 **** -0.24
26342 H 101.81735775852542 66.29948783210068 51.094274369269044 H 0.0 **** 0.06
26343 H 100.5179501055901 66.32028098697987 49.87779511951439 H 0.0 **** 0.06
26344 H 101.68842170726992 67.66025276504683 49.95324292939793 H 0.0 **** 0.06
26345 H 100.4775620828105 67.46214921541434 51.243349662526185 H 0.0 **** 0.06
26346 C 115.90886188715713 45.719025873302655 93.47527434219606 C 0.0 **** -0.24
26347 H 116.04183980316645 46.355358876305104 92.6009241514987 H 0.0 **** 0.06
26348 H 115.55466688040727 44.73724116956525 93.16021744191497 H 0.0 **** 0.06
26349 H 115.17661426175428 46.17164908339203 94.14535633948711 H 0.0 **** 0.06
26350 H 116.86081644019285 45.61346781809918 93.99565608486304 H 0.0 **** 0.06
26351 C 115.38612909327493 17.92742537172262 36.760303604635595 C 0.0 **** -0.24
26352 H 116.00360062950573 18.442152136865303 37.495766271011945 H 0.0 **** 0.06
26353 H 115.3465596281791 18.515866297397693 35.8437128257098 H 0.0 **** 0.06
26354 H 114.3781700230282 17.80075759946783 37.15565778765324 H 0.0 **** 0.06
26355 H 115.81810946069932 16.949476847623032 36.545627500492685 H 0.0 **** 0.06
26356 C 114.82814071770505 54.50539795999717 113.05291947397112 C 0.0 **** -0.24
26357 H 115.32843447601891 54.11115992955729 113.9365837626763 H 0.0 **** 0.06
26358 H 113.79457655147272 54.15879367588332 113.03566415070611 H 0.0 **** 0.06
26359 H 115.34373902624853 54.15491330759656 112.15804121470295 H 0.0 **** 0.06
26360 H 114.84657780330511 55.59499745430492 113.07982961151886 H 0.0 **** 0.06
26361 C 94.08052283246087 72.79819838103484 39.6036114508492 C 0.0 **** -0.24
26362 H 94.74793078772294 73.41696833693072 39.00329026594427 H 0.0 **** 0.06
26363 H 93.82044065263037 71.89842127248713 39.04678966725446 H 0.0 **** 0.06
26364 H 93.17491891163874 73.35863713286562 39.834576908644564 H 0.0 **** 0.06
26365 H 94.58127964187989 72.52001780162621 40.530925480419086 H 0.0 **** 0.06
26366 C 57.81445804774859 11.405094160551215 3.2751441044455873 C 0.0 **** -0.24
26367 H 57.3433312317739 12.235531625417025 2.7488387784707697 H 0.0 **** 0.06
26368 H 58.75429205975965 11.740450136811234 3.7141481465394577 H 0.0 **** 0.06
26369 H 58.009296195550576 10.594071151651121 2.5734576336504915 H 0.0 **** 0.06
26370 H 57.15054767138389 11.051634327218181 4.0645181143773925 H 0.0 **** 0.06
26371 C 28.76830016885267 93.1929841590009 94.34180811381088 C 0.0 **** -0.24
26372 H 29.424827311680716 93.95681548292742 94.75738830668837 H 0.0 **** 0.06
26373 H 29.142530987540823 92.20520818828766 94.61313840277529 H 0.0 **** 0.06
26374 H 28.744306914047513 93.28672551985954 93.25581223621214 H 0.0 **** 0.06
26375 H 27.76198494324653 93.32330271534494 94.74000765679784 H 0.0 **** 0.06
26376 C 113.43142365077594 86.71499820371685 4.892679210653739 C 0.0 **** -0.24
26377 H 114.12068486033954 87.18415630805808 4.190677941904738 H 0.0 **** 0.06
26378 H 113.99785788101923 86.23352233472738 5.690651925253803 H 0.0 **** 0.06
26379 H 112.8330103169958 85.96852056469262 4.370345266971157 H 0.0 **** 0.06
26380 H 112.77479894138506 87.47336123252666 5.319658909671574 H 0.0 **** 0.06
26381 C 72.06446853236139 25.242203921933566 105.73406035777074 C 0.0 **** -0.24
26382 H 73.12549373195702 25.032380115094185 105.86855055480356 H 0.0 **** 0.06
26383 H 71.68818971068168 25.783682870306734 106.60154688924416 H 0.0 **** 0.06
26384 H 71.52067443005535 24.303568691012373 105.62589832248472 H 0.0 **** 0.06
26385 H 71.92564395969225 25.847365561350784 104.83877370105705 H 0.0 **** 0.06
26386 C 87.34077497532996 102.20087115378715 119.92116983505788 C 0.0 **** -0.24
26387 H 87.50201907832826 101.75819436816374 120.90361407232189 H 0.0 **** 0.06
26388 H 86.27099005437367 102.24892222111916 119.71503757117033 H 0.0 **** 0.06
26389 H 87.8302478351269 101.59014769601572 119.16324619362081 H 0.0 **** 0.06
26390 H 87.75951861169722 103.20741161232044 119.90347126595786 H 0.0 **** 0.06
26391 C 89.53073643615994 27.88778181938474 60.68555474466115 C 0.0 **** -0.24
26392 H 90.12195095773484 28.704586485722103 61.1023218060873 H 0.0 **** 0.06
26393 H 88.75798070696715 28.29589248029768 60.034063069305404 H 0.0 **** 0.06
26394 H 89.06526017391428 27.32740782680989 61.49627723652904 H 0.0 **** 0.06
26395 H 90.17909000437618 27.226269064213 60.112015218538204 H 0.0 **** 0.06
26396 C 1.9907055336902975 16.184854330379977 36.64373186263384 C 0.0 **** -0.24
26397 H 2.8717526599488448 15.597751663587474 36.90066664985062 H 0.0 **** 0.06
26398 H 1.9176282614515276 17.041504266221324 37.314345591911774 H 0.0 **** 0.06
26399 H 1.0992002243305805 15.566341185868822 36.74697379607872 H 0.0 **** 0.06
26400 H 2.0730218852506646 16.534921828841306 35.614758153379626 H 0.0 **** 0.06
26401 C 45.697740741758935 118.3251900063741 36.63046664161082 C 0.0 **** -0.24
26402 H 45.314819571826035 118.27193314387961 35.611206013747406 H 0.0 **** 0.06
26403 H 44.866332218548905 118.26999654220248 37.333077251820114 H 0.0 **** 0.06
26404 H 46.22897212806856 119.26694551033071 36.769441214805184 H 0.0 **** 0.06
26405 H 46.37933243372254 117.49382686670126 36.80674242653167 H 0.0 **** 0.06
26406 C 84.50290996861685 107.56288079430968 79.12141236297435 C 0.0 **** -0.24
26407 H 83.91130596033827 108.4651494745782 79.27969095487794 H 0.0 **** 0.06
26408 H 85.37742735642252 107.58417801763187 79.77156456542133 H 0.0 **** 0.06
26409 H 84.82468269956823 107.51765928078973 78.08086708985888 H 0.0 **** 0.06
26410 H 83.89831197612634 106.68697488454492 79.35374220884961 H 0.0 **** 0.06
26411 C 104.0479515486445 60.34257480700288 83.97994014061427 C 0.0 **** -0.24
26412 H 103.81362063796882 59.75487848616526 83.09269431530001 H 0.0 **** 0.06
26413 H 103.68778683011678 59.81930962530881 84.86626125017492 H 0.0 **** 0.06
26414 H 103.56251024014387 61.31585627357416 83.90922916296779 H 0.0 **** 0.06
26415 H 105.12675751530756 60.47835966971534 84.05121597129474 H 0.0 **** 0.06
26416 C 60.7635041419004 26.096476525210228 37.77202945340345 C 0.0 **** -0.24
26417 H 60.71857246064229 27.018964271018042 38.35085293984049 H 0.0 **** 0.06
26418 H 61.359264283887796 26.26116481270494 36.87338000286775 H 0.0 **** 0.06
26419 H 59.754578384523484 25.79570861772227 37.4893801634596 H 0.0 **** 0.06
26420 H 61.22106970116937 25.311918004317647 38.37336606996766 H 0.0 **** 0.06
26421 C 25.342698010173798 93.0712506213315 30.089088260850588 C 0.0 **** -0.24
26422 H 25.673068510016115 92.68811063277602 31.054319416498004 H 0.0 **** 0.06
26423 H 25.877998673104457 92.55669903083626 29.29110957137084 H 0.0 **** 0.06
26424 H 25.54633560624228 94.14013979675175 30.03380959795004 H 0.0 **** 0.06
26425 H 24.2712396698916 92.89965425280681 29.97821927176392 H 0.0 **** 0.06
26426 C 5.54581322069518 64.06603751030963 74.97852156146553 C 0.0 **** -0.24
26427 H 5.8961480744080745 63.05386884535744 75.18025456003994 H 0.0 **** 0.06
26428 H 4.533340339945383 64.02627069168574 74.57660315978356 H 0.0 **** 0.06
26429 H 6.206510761772705 64.54044408314797 74.2523195652696 H 0.0 **** 0.06
26430 H 5.547869809855229 64.64323484038692 75.90278510827318 H 0.0 **** 0.06
26431 C 106.27523407192348 110.49720339183969 37.47913797108748 C 0.0 **** -0.24
26432 H 106.9625816587527 110.507350901676 36.63273883431515 H 0.0 **** 0.06
26433 H 106.45511776043426 111.37195822296312 38.10382345639073 H 0.0 **** 0.06
26434 H 106.43450452793505 109.59231866539488 38.06539787135205 H 0.0 **** 0.06
26435 H 105.248907262774 110.51599574174938 37.113345373809295 H 0.0 **** 0.06
26436 C 87.99999521556043 8.572707625360692 1.0825677284412478 C 0.0 **** -0.24
26437 H 87.10552974823696 8.727076077589174 1.686770579748952 H 0.0 **** 0.06
26438 H 88.01919157820183 7.545419591642599 0.7185266169797018 H 0.0 **** 0.06
26439 H 88.885825361146 8.75967684170243 1.6896324686110091 H 0.0 **** 0.06
26440 H 87.98803219111574 9.258839586657501 0.23530154560623373 H 0.0 **** 0.06
26441 C 98.46630382873269 60.320591754208834 106.79052960448558 C 0.0 **** -0.24
26442 H 98.33893343760707 60.8182885266489 107.75149567836075 H 0.0 **** 0.06
26443 H 98.99416553605457 59.37850704352422 106.936064832656 H 0.0 **** 0.06
26444 H 99.04371291712235 60.962202331818276 106.12401943412902 H 0.0 **** 0.06
26445 H 97.48847721180402 60.126550350257475 106.34960310713976 H 0.0 **** 0.06
26446 C 54.75991515633413 115.56468871376966 88.77512679646478 C 0.0 **** -0.24
26447 H 55.012871493466406 114.76057388312319 88.0845896705392 H 0.0 **** 0.06
26448 H 55.63632287246887 115.8212653537703 89.37139867045332 H 0.0 **** 0.06
26449 H 53.95528119383965 115.23659597424428 89.43464524042722 H 0.0 **** 0.06
26450 H 54.43501020317598 116.43879339293082 88.2114984919165 H 0.0 **** 0.06
26451 C 32.97988315222436 68.86074833947217 83.4131484249219 C 0.0 **** -0.24
26452 H 33.89986898845526 69.06911110886526 83.960016954304 H 0.0 **** 0.06
26453 H 33.21900107040845 68.61576773032414 82.37885533899086 H 0.0 **** 0.06
26454 H 32.33426456310244 69.73912846903679 83.44037287924331 H 0.0 **** 0.06
26455 H 32.465833514083556 68.01853365324192 83.87701969687572 H 0.0 **** 0.06
26456 C 91.29147886682361 35.54820267380154 99.40470476525698 C 0.0 **** -0.24
26457 H 91.83933146278451 36.387300942501554 98.9754556780425 H 0.0 **** 0.06
26458 H 91.85736357180642 35.13368932116944 100.2383955075363 H 0.0 **** 0.06
26459 H 91.15071163699562 34.779965199327876 98.64363514835739 H 0.0 **** 0.06
26460 H 90.31980611044713 35.89181316395445 99.75812089386463 H 0.0 **** 0.06
26461 C 93.13820383648903 121.56869092176412 58.12287008727302 C 0.0 **** -0.24
26462 H 92.28516272988202 121.5943069405761 57.444218583400506 H 0.0 **** 0.06
26463 H 93.3630387384251 122.57968402581128 58.46201506495614 H 0.0 **** 0.06
26464 H 94.00379040676233 121.15883379044163 57.60281996795499 H 0.0 **** 0.06
26465 H 92.89943427472485 120.94203933649156 58.98218144941165 H 0.0 **** 0.06
26466 C 61.1236648965758 113.78695894067593 1.8808408577118687 C 0.0 **** -0.24
26467 H 61.99097590874727 114.39584505745736 1.625432479348417 H 0.0 **** 0.06
26468 H 60.87274683766973 113.1416165818864 1.0387502917289435 H 0.0 **** 0.06
26469 H 60.27770452951375 114.4365611642274 2.106593299820897 H 0.0 **** 0.06
26470 H 61.354840583252646 113.17532894429556 2.752927250581344 H 0.0 **** 0.06
26471 C 48.86872814792103 102.76648519766778 30.39378367805932 C 0.0 **** -0.24
26472 H 47.9215983577034 102.99540868042166 29.90477820199021 H 0.0 **** 0.06
26473 H 48.92182471648484 101.69698616671948 30.597321647017125 H 0.0 **** 0.06
26474 H 48.93721167147919 103.31919250006874 31.330353873776815 H 0.0 **** 0.06
26475 H 49.69299254006433 103.05425422124236 29.740853854572137 H 0.0 **** 0.06
26476 C 31.725978341545783 44.986116845087224 84.70903662951966 C 0.0 **** -0.24
26477 H 31.40187578128507 44.48157881648848 85.61967985279352 H 0.0 **** 0.06
26478 H 31.362746913083868 46.01436720173001 84.71480962734589 H 0.0 **** 0.06
26479 H 31.323353534014814 44.46361568889472 83.84171841014302 H 0.0 **** 0.06
26480 H 32.81401978959684 44.98472524140419 84.66047848228948 H 0.0 **** 0.06
26481 C 89.29114582726265 29.239033514236894 70.85156870883569 C 0.0 **** -0.24
26482 H 90.37253448024717 29.306728929761093 70.7277781270208 H 0.0 **** 0.06
26483 H 88.79818231182236 29.766659264017136 70.03442048047955 H 0.0 **** 0.06
26484 H 89.00583723751555 29.69177440002892 71.80108375337929 H 0.0 **** 0.06
26485 H 88.9897995754958 28.192249399901726 70.8434753905137 H 0.0 **** 0.06
26486 C 8.692823549939458 114.7288821146141 23.54510414965236 C 0.0 **** -0.24
26487 H 9.350537092020534 113.95524419592849 23.150559700717565 H 0.0 **** 0.06
26488 H 9.285828580749342 115.59661269332062 23.834207609205208 H 0.0 **** 0.06
26489 H 8.16063456259317 114.34458178989877 24.414857695925036 H 0.0 **** 0.06
26490 H 7.973528944798719 115.0197556421665 22.778798692868378 H 0.0 **** 0.06
26491 C 111.87270659792371 109.75269363813848 13.870001996529282 C 0.0 **** -0.24
26492 H 112.1128045027804 110.46314611843289 13.078547994915226 H 0.0 **** 0.06
26493 H 111.79456907584665 108.75080490720592 13.447769085452848 H 0.0 **** 0.06
26494 H 110.9242071375694 110.0285428237523 14.329720467986277 H 0.0 **** 0.06
26495 H 112.66044654489627 109.76951529803705 14.623786440011685 H 0.0 **** 0.06
26496 C 4.201572504815658 86.77263786386945 88.71362128340712 C 0.0 **** -0.24
26497 H 3.551671213070506 86.69764208891723 87.84165907916241 H 0.0 **** 0.06
26498 H 5.243033634945448 86.72403441038566 88.39472226941024 H 0.0 **** 0.06
26499 H 3.990456189561087 85.94855026818607 89.39532039737725 H 0.0 **** 0.06
26500 H 4.0202196711071 87.7194986514948 89.22091494011573 H 0.0 **** 0.06
26501 C 75.81868268413683 20.817024590236983 117.14518254316093 C 0.0 **** -0.24
26502 H 76.70405555153292 20.217960181351316 116.93117349089931 H 0.0 **** 0.06
26503 H 75.14925221554137 20.794207610975477 116.28486027691534 H 0.0 **** 0.06
26504 H 76.11618814779268 21.845919837429918 117.3470889257112 H 0.0 **** 0.06
26505 H 75.3056923078098 20.409470370012542 118.01602669348233 H 0.0 **** 0.06
26506 C 112.20404694958953 40.886620236382186 6.407245688523631 C 0.0 **** -0.24
26507 H 112.48068995018394 39.89845255096489 6.775251698471607 H 0.0 **** 0.06
26508 H 111.43729506071398 40.78633107979245 5.638377811729299 H 0.0 **** 0.06
26509 H 113.08084047016945 41.376018997384335 5.9842231650793 H 0.0 **** 0.06
26510 H 111.81563685237182 41.485585000431485 7.231010790310165 H 0.0 **** 0.06
26511 C 49.39056523472891 47.920198566343004 103.24379743843264 C 0.0 **** -0.24
26512 H 49.40710435058111 47.08191187814583 102.546935153834 H 0.0 **** 0.06
26513 H 49.35237992758971 47.54119948415598 104.26563537620893 H 0.0 **** 0.06
26514 H 48.51183071960827 48.53441094592114 103.05053890634326 H 0.0 **** 0.06
26515 H 50.29080923012782 48.519535817488816 103.1119275108812 H 0.0 **** 0.06
26516 C 1.9527659642677548 12.471201742187205 93.62307630920375 C 0.0 **** -0.24
26517 H 1.8899831789301231 13.002002954644752 94.57201435594934 H 0.0 **** 0.06
26518 H 0.9989522029993196 12.547657251070945 93.09957551670453 H 0.0 **** 0.06
26519 H 2.182804864668242 11.421142913056883 93.80899779916953 H 0.0 **** 0.06
26520 H 2.7392993722211685 12.91269780991837 93.01117554728083 H 0.0 **** 0.06
26521 C 16.114199287465595 13.927788557104293 95.4086457238499 C 0.0 **** -0.24
26522 H 16.344937642951066 14.692825089527162 94.666888297768 H 0.0 **** 0.06
26523 H 15.080734243217478 13.603313771792614 95.28618243194487 H 0.0 **** 0.06
26524 H 16.250927830677398 14.338436790274102 96.40867543506573 H 0.0 **** 0.06
26525 H 16.781917117195462 13.076710699351679 95.27109731579452 H 0.0 **** 0.06
26526 C 14.487071923267393 36.493658523766186 88.67836832243637 C 0.0 **** -0.24
26527 H 15.036709326815867 37.383340422407436 88.37067531872594 H 0.0 **** 0.06
26528 H 15.12511845480185 35.616445439965474 88.5713451661951 H 0.0 **** 0.06
26529 H 13.60245545738637 36.37841331295934 88.04998267399202 H 0.0 **** 0.06
26530 H 14.18228845953439 36.59649358238353 89.71900996367864 H 0.0 **** 0.06
26531 C 100.46068000835967 98.50757918875263 38.2952044446109 C 0.0 **** -0.24
26532 H 100.67095047071882 98.91779127640538 37.307451688508195 H 0.0 **** 0.06
26533 H 99.62659056951227 99.04846494212146 38.742401880914116 H 0.0 **** 0.06
26534 H 101.34252351298755 98.61255789409662 38.92719782501254 H 0.0 **** 0.06
26535 H 100.20348878740592 97.45263396110798 38.20360567181015 H 0.0 **** 0.06
26536 C 55.06506561097967 98.51750639043948 23.351930780192617 C 0.0 **** -0.24
26537 H 54.44143165703082 98.41157596412609 24.239038727202797 H 0.0 **** 0.06
26538 H 54.639706104515994 97.93093270512799 22.537383204851153 H 0.0 **** 0.06
26539 H 56.07146175063929 98.15806645773543 23.571076810657928 H 0.0 **** 0.06
26540 H 55.10863759600835 99.56681474894071 23.061674807785607 H 0.0 **** 0.06
26541 C 0.06393074311510816 25.919857541212565 10.447438862850845 C 0.0 **** -0.24
26542 H -0.5429842399889537 26.739783865922817 10.832296225971419 H 0.0 **** 0.06
26543 H 1.0272178316890006 25.910915457742277 10.956903408076954 H 0.0 **** 0.06
26544 H 0.2188314084219769 26.053796589343932 9.377199075535685 H 0.0 **** 0.06
26545 H -0.4500017489877308 24.97416962569693 10.624515072639838 H 0.0 **** 0.06
26546 C 78.70179372832183 85.15182228305088 96.75268716289912 C 0.0 **** -0.24
26547 H 78.01636662864863 84.46451313099391 97.2492301985024 H 0.0 **** 0.06
26548 H 79.32780063937327 84.59773285672713 96.05381997934484 H 0.0 **** 0.06
26549 H 79.33028750701715 85.63851693494331 97.49828692012528 H 0.0 **** 0.06
26550 H 78.13034074407747 85.90595480037808 96.2122422345007 H 0.0 **** 0.06
26551 C 67.14462523957013 96.38812139377592 67.19975143849572 C 0.0 **** -0.24
26552 H 66.19490465089609 96.89777760294942 67.04109327262859 H 0.0 **** 0.06
26553 H 67.86619755124252 97.08731105224922 67.62327404032149 H 0.0 **** 0.06
26554 H 67.51975290573876 96.01305373966818 66.24684761780048 H 0.0 **** 0.06
26555 H 66.99959890921531 95.55468998593204 67.8863535963672 H 0.0 **** 0.06
26556 C 85.88602964761924 107.34760240518614 88.4210098655955 C 0.0 **** -0.24
26557 H 85.55605129580886 108.16743101177923 87.78338972608822 H 0.0 **** 0.06
26558 H 86.5166398052479 107.74049270264982 89.2192154979181 H 0.0 **** 0.06
26559 H 86.45513305295634 106.6328406702265 87.82732892748115 H 0.0 **** 0.06
26560 H 85.01726695593504 106.85173229291772 88.8532694080009 H 0.0 **** 0.06
26561 C 3.009901041908279 27.00079395904919 60.065991534949084 C 0.0 **** -0.24
26562 H 3.8801074796808788 26.407468800849585 59.785846709531164 H 0.0 **** 0.06
26563 H 2.853921788827181 27.787542773148772 59.32726292680548 H 0.0 **** 0.06
26564 H 3.176681238842809 27.44958679580955 61.04497491525493 H 0.0 **** 0.06
26565 H 2.130112785208084 26.359293949179033 60.105859268887706 H 0.0 **** 0.06
26566 C 71.12292547882694 104.96854338345042 53.5450610789041 C 0.0 **** -0.24
26567 H 70.23914780253239 104.93100736615821 54.18139051841894 H 0.0 **** 0.06
26568 H 70.8260299167066 105.21420066318254 52.52519359522472 H 0.0 **** 0.06
26569 H 71.61923500191662 103.99845440240304 53.55584636531154 H 0.0 **** 0.06
26570 H 71.80718161335159 105.73132553127965 53.918965028538764 H 0.0 **** 0.06
26571 C 23.68782309306164 26.424727420091074 37.17202466570677 C 0.0 **** -0.24
26572 H 24.07339486918113 26.660187838362674 36.18024197487142 H 0.0 **** 0.06
26573 H 24.319065412851586 26.893976174237935 37.92683185025777 H 0.0 **** 0.06
26574 H 23.690670200444515 25.34379198012124 37.31517019735827 H 0.0 **** 0.06
26575 H 22.669262398718615 26.799893829744633 37.26422189430838 H 0.0 **** 0.06
26576 C 8.479040085279493 7.5242886578919865 68.6075354470529 C 0.0 **** -0.24
26577 H 9.293116330623285 7.8114681385571885 69.27324931689913 H 0.0 **** 0.06
26578 H 8.890863751738593 7.106322521370828 67.68945993111299 H 0.0 **** 0.06
26579 H 7.877699533983403 8.401765778530148 68.37053216971941 H 0.0 **** 0.06
26580 H 7.854793278945369 6.777384184385994 69.09910418273745 H 0.0 **** 0.06
26581 C 14.5181225576206 36.10442021534298 121.89532042251352 C 0.0 **** -0.24
26582 H 14.531361848963453 35.01489721632368 121.85159922578147 H 0.0 **** 0.06
26583 H 14.721822610120118 36.50918808393 120.90447213184882 H 0.0 **** 0.06
26584 H 15.281759652007029 36.44910879819872 122.5934009070797 H 0.0 **** 0.06
26585 H 13.538785461075104 36.442170540604224 122.23285803951472 H 0.0 **** 0.06
26586 C 97.15101648051393 19.497223183776093 120.93580383374847 C 0.0 **** -0.24
26587 H 96.19529122580508 19.563027323606835 120.4152241400107 H 0.0 **** 0.06
26588 H 97.85443600692835 18.924944420263834 120.3311641856514 H 0.0 **** 0.06
26589 H 97.00834728310008 19.000677776193022 121.89603887546843 H 0.0 **** 0.06
26590 H 97.54430005413843 20.499945255117044 121.10056293395202 H 0.0 **** 0.06
26591 C 99.48383141672815 57.855063728540756 63.61478190314324 C 0.0 **** -0.24
26592 H 99.67633050121424 57.32953756328445 64.55026332760508 H 0.0 **** 0.06
26593 H 100.2958580053911 57.65633045840883 62.91380818388387 H 0.0 **** 0.06
26594 H 99.42228020757224 58.92582584308753 63.80614545016192 H 0.0 **** 0.06
26595 H 98.54295670734541 57.507302359055814 63.18882660799028 H 0.0 **** 0.06
26596 C 79.85411508194736 63.93756833689207 112.6049896164408 C 0.0 **** -0.24
26597 H 79.3773821055625 63.374417530699134 111.80198150260773 H 0.0 **** 0.06
26598 H 79.47450645915276 64.95931317199017 112.60637258659668 H 0.0 **** 0.06
26599 H 80.9327531723415 63.94953486335356 112.44913779686146 H 0.0 **** 0.06
26600 H 79.63004923731415 63.46496819983747 113.56115891155005 H 0.0 **** 0.06
26601 C 15.174282990244887 24.521068539272562 56.55465064517671 C 0.0 **** -0.24
26602 H 14.529276723524315 23.672401538035764 56.7779492262207 H 0.0 **** 0.06
26603 H 15.338212847943275 24.5796372944426 55.47845091723039 H 0.0 **** 0.06
26604 H 16.13128341188019 24.39423683091043 57.06111294255115 H 0.0 **** 0.06
26605 H 14.699326908836856 25.43896134780134 56.901458456069975 H 0.0 **** 0.06
26606 C 107.05356954564647 115.87416526731965 121.48855057149177 C 0.0 **** -0.24
26607 H 106.88094023438299 116.53510412594957 122.33753528099135 H 0.0 **** 0.06
26608 H 107.55922069281337 116.42572475034302 120.69575665058507 H 0.0 **** 0.06
26609 H 106.09839620726493 115.50081487763197 121.11929522767934 H 0.0 **** 0.06
26610 H 107.6743235244839 115.03482191596368 121.8017092440639 H 0.0 **** 0.06
26611 C 55.98492456803501 79.35980411854678 94.71251298867605 C 0.0 **** -0.24
26612 H 54.96727319423138 79.26389644807293 94.33274387291198 H 0.0 **** 0.06
26613 H 56.565485905850664 79.98994297895962 94.03878999317129 H 0.0 **** 0.06
26614 H 56.44355434964751 78.3737842592162 94.77441286941729 H 0.0 **** 0.06
26615 H 55.96103003588655 79.81303760646063 95.70349865085416 H 0.0 **** 0.06
26616 C 54.951705064875625 29.34657382850139 39.033217005679205 C 0.0 **** -0.24
26617 H 55.048405424717544 29.447726098911858 40.11391648002805 H 0.0 **** 0.06
26618 H 55.602528851783404 28.545154954256873 38.683575310508076 H 0.0 **** 0.06
26619 H 55.238063902421516 30.283158218620542 38.55389720425475 H 0.0 **** 0.06
26620 H 53.917045966077296 29.111131121482117 38.78275654487089 H 0.0 **** 0.06
26621 C 49.999411336358584 37.31767076843154 111.56472959828328 C 0.0 **** -0.24
26622 H 51.04136332229546 37.03674598998632 111.71822702269112 H 0.0 **** 0.06
26623 H 49.78597484318385 38.23425916861284 112.11567674641762 H 0.0 **** 0.06
26624 H 49.35142548955658 36.51827908940643 111.92362288816732 H 0.0 **** 0.06
26625 H 49.81963917976496 37.48131175041865 110.50203879336169 H 0.0 **** 0.06
26626 C 96.27647471207936 32.56849175642225 18.57575231204953 C 0.0 **** -0.24
26627 H 97.01729219790118 33.15348936213738 18.031522274324285 H 0.0 **** 0.06
26628 H 96.35960796736339 32.779017536792935 19.641727384557623 H 0.0 **** 0.06
26629 H 96.45150818529694 31.507339427918737 18.40047222414271 H 0.0 **** 0.06
26630 H 95.27749049775571 32.83412069884005 18.229287365173427 H 0.0 **** 0.06
26631 C 112.15859717078077 38.41267818447602 38.60348026273232 C 0.0 **** -0.24
26632 H 113.12220457907223 37.99382669859165 38.313969801250096 H 0.0 **** 0.06
26633 H 111.7385115170169 38.9694292431721 37.76627515660655 H 0.0 **** 0.06
26634 H 112.29401082930724 39.081437414549214 39.45303445096379 H 0.0 **** 0.06
26635 H 111.48064605003131 37.60548206037055 38.88150336473816 H 0.0 **** 0.06
26636 C 60.997921679621925 109.09051969831978 11.389021395990852 C 0.0 **** -0.24
26637 H 61.01613856285516 108.70666461175239 12.40975624345704 H 0.0 **** 0.06
26638 H 61.893718698925056 108.76335332940997 10.86217043179262 H 0.0 **** 0.06
26639 H 60.966741628092535 110.18034486494693 11.411739256434192 H 0.0 **** 0.06
26640 H 60.11355043156473 108.71253596904731 10.874861893257123 H 0.0 **** 0.06
26641 C 53.68737374885898 80.76397400914382 72.79747515223022 C 0.0 **** -0.24
26642 H 53.656753673125756 80.63720002099404 73.87907111505797 H 0.0 **** 0.06
26643 H 53.70810187503617 79.78522970227647 72.31762717138744 H 0.0 **** 0.06
26644 H 54.581712132995285 81.32224171172729 72.52207886686944 H 0.0 **** 0.06
26645 H 52.80264691521466 81.31091903407093 72.46977137713594 H 0.0 **** 0.06
26646 C 59.37404376485086 119.46174565169937 5.185040704546822 C 0.0 **** -0.24
26647 H 58.63851444655331 118.66242903217687 5.2809664518918 H 0.0 **** 0.06
26648 H 59.735075356286735 119.74232954376832 6.174855352688866 H 0.0 **** 0.06
26649 H 58.91220367757905 120.32563356389302 4.708036004290506 H 0.0 **** 0.06
26650 H 60.210343367974836 119.11456575256163 4.579115656835256 H 0.0 **** 0.06
26651 C 113.22356312505303 21.961074662426398 56.947287110677564 C 0.0 **** -0.24
26652 H 113.65756602302508 21.125296768086365 56.39899440424756 H 0.0 **** 0.06
26653 H 113.94529005066215 22.33020133904521 57.67640432139609 H 0.0 **** 0.06
26654 H 112.32321028516088 21.629670645519795 57.463546937094236 H 0.0 **** 0.06
26655 H 112.96983902874268 22.759646136010538 56.25016243593865 H 0.0 **** 0.06
26656 C 9.924255288935683 40.42374516040614 87.47739037379205 C 0.0 **** -0.24
26657 H 9.008234322686576 40.00586708030741 87.89619782968424 H 0.0 **** 0.06
26658 H 10.576814850645661 40.75256069530545 88.28669781706279 H 0.0 **** 0.06
26659 H 9.67730129636243 41.27326015328023 86.84038319145253 H 0.0 **** 0.06
26660 H 10.43391696662249 39.6628437456509 86.88676264785505 H 0.0 **** 0.06
26661 C 122.14781571869293 111.5776957775372 57.75025740615718 C 0.0 **** -0.24
26662 H 121.40008351348683 112.36104856670534 57.88019266328411 H 0.0 **** 0.06
26663 H 122.05758042122989 110.85360961457715 58.56039257114046 H 0.0 **** 0.06
26664 H 123.1432837358426 112.01974233929434 57.76708928287771 H 0.0 **** 0.06
26665 H 121.98731468028859 111.07750520647738 56.79528833435432 H 0.0 **** 0.06
26666 C 4.190153862723207 98.65413495760868 44.66854649931025 C 0.0 **** -0.24
26667 H 4.607878577607835 99.65318015777137 44.794807749763976 H 0.0 **** 0.06
26668 H 3.9579091694195085 98.4876152155224 43.61606240030039 H 0.0 **** 0.06
26669 H 3.27917174776303 98.56382632501851 45.26058964946321 H 0.0 **** 0.06
26670 H 4.916009089641136 97.9127865511706 45.003074336655914 H 0.0 **** 0.06
26671 C 29.54127010240792 2.6942149908969544 24.609936083531238 C 0.0 **** -0.24
26672 H 29.54301922376913 3.4744064938763515 23.849745183620882 H 0.0 **** 0.06
26673 H 30.4897506979174 2.7064575378396025 25.146373197507046 H 0.0 **** 0.06
26674 H 29.405859513194017 1.7234341216639333 24.132715351567242 H 0.0 **** 0.06
26675 H 28.724723947587087 2.871359018405517 25.310154990837248 H 0.0 **** 0.06
26676 C 87.45929194059508 98.92623211741807 73.40797420762013 C 0.0 **** -0.24
26677 H 88.29385779232601 99.31743465058267 73.98969625229174 H 0.0 **** 0.06
26678 H 86.56325404608185 98.9016037850921 74.02930402828335 H 0.0 **** 0.06
26679 H 87.69428310487442 97.91821430963759 73.06732432889203 H 0.0 **** 0.06
26680 H 87.28557327760771 99.5698344006639 72.54502397096056 H 0.0 **** 0.06
26681 C 6.807151833178647 91.87441309301619 101.55514409698966 C 0.0 **** -0.24
26682 H 6.085975974034639 92.68478206716861 101.65372678545035 H 0.0 **** 0.06
26683 H 6.798344719249378 91.26700793540442 102.46017864803048 H 0.0 **** 0.06
26684 H 7.803440255652223 92.29031554966832 101.40667649984206 H 0.0 **** 0.06
26685 H 6.541117299610555 91.2540042696354 100.69811097978771 H 0.0 **** 0.06
26686 C 93.2794911182188 43.06504799328309 35.66164103664393 C 0.0 **** -0.24
26687 H 93.48574693710964 43.97778180316374 35.10286143335375 H 0.0 **** 0.06
26688 H 93.99037861025778 42.97452357125951 36.48312228880255 H 0.0 **** 0.06
26689 H 93.37746328715122 42.20429006273105 35.0003382673038 H 0.0 **** 0.06
26690 H 92.26561224249662 43.10420596858944 36.06055761459044 H 0.0 **** 0.06
26691 C 62.32172959423414 90.49815723719112 98.68559442436495 C 0.0 **** -0.24
26692 H 61.529990762801646 91.23414076514754 98.82568368515223 H 0.0 **** 0.06
26693 H 62.549610225230225 90.02334877807854 99.6399866297977 H 0.0 **** 0.06
26694 H 63.2148756473764 90.99474345268601 98.30356758353366 H 0.0 **** 0.06
26695 H 61.99323663362705 89.74312306515466 97.97174999263439 H 0.0 **** 0.06
26696 C 91.15171816657471 31.983790530963624 92.31050978747498 C 0.0 **** -0.24
26697 H 90.41916495102214 32.02402521737653 93.11732584265332 H 0.0 **** 0.06
26698 H 90.63913119872828 32.067549032054835 91.35198004491417 H 0.0 **** 0.06
26699 H 91.68839536543305 31.036717680341326 92.3554838595494 H 0.0 **** 0.06
26700 H 91.85645154650996 32.807364787657534 92.41893652250224 H 0.0 **** 0.06
26701 C 117.35036006643378 72.34249260608618 45.00984230388383 C 0.0 **** -0.24
26702 H 117.41226596617602 71.26001698196393 44.899229030629016 H 0.0 **** 0.06
26703 H 118.34319205927567 72.74445132824016 45.211487884419014 H 0.0 **** 0.06
26704 H 116.68423753631194 72.58485215978527 45.837299672765916 H 0.0 **** 0.06
26705 H 116.96097312007633 72.77974545343233 44.09058669841794 H 0.0 **** 0.06
26706 C 85.7209407817395 23.05189038793334 56.15355074275008 C 0.0 **** -0.24
26707 H 84.86643680229287 22.80301187710623 56.78168885306713 H 0.0 **** 0.06
26708 H 86.64313467065648 22.827405823367826 56.68895358791543 H 0.0 **** 0.06
26709 H 85.69323996570756 24.11325873998046 55.90540349485625 H 0.0 **** 0.06
26710 H 85.68089760332589 22.46406950212934 55.23592917674102 H 0.0 **** 0.06
26711 C 96.34779858320533 29.133658423238387 24.783999168378955 C 0.0 **** -0.24
26712 H 95.90616680486062 28.158571647006653 24.578676802221253 H 0.0 **** 0.06
26713 H 96.8878937372915 29.095702263680323 25.730576023145034 H 0.0 **** 0.06
26714 H 95.56076539650755 29.88409384360557 24.84431058352692 H 0.0 **** 0.06
26715 H 97.03866179331558 29.395742306946687 23.98175028283447 H 0.0 **** 0.06
26716 C 3.0002830315305005 95.8629171361186 34.33453402092755 C 0.0 **** -0.24
26717 H 2.4815407929341546 95.12720061981366 33.72084129260574 H 0.0 **** 0.06
26718 H 2.6579663399279383 96.8635884008761 34.06991267547676 H 0.0 **** 0.06
26719 H 4.074165187535499 95.78683428834626 34.16055497056959 H 0.0 **** 0.06
26720 H 2.789088887436762 95.67227606531327 35.387292401782474 H 0.0 **** 0.06
26721 C 96.26007053933998 75.75297137108217 87.25355216958019 C 0.0 **** -0.24
26722 H 96.22532571533765 76.45872712001895 86.423816229588 H 0.0 **** 0.06
26723 H 97.2239325584232 75.8316158366163 87.75745418648978 H 0.0 **** 0.06
26724 H 96.1292974955922 74.73963054849733 86.87496020930575 H 0.0 **** 0.06
26725 H 95.46161220627496 75.9827327467784 87.96005496926205 H 0.0 **** 0.06
26726 C 7.19474223077259 101.7104759618968 47.67154419560771 C 0.0 **** -0.24
26727 H 8.186949795515972 101.86091063585565 47.24468385074647 H 0.0 **** 0.06
26728 H 6.5125295575802085 102.46554408098893 47.278532441562874 H 0.0 **** 0.06
26729 H 7.249196397750907 101.79866382867647 48.757047685367155 H 0.0 **** 0.06
26730 H 6.831320125734422 100.71756302323831 47.405329171623606 H 0.0 **** 0.06
26731 C 53.200970436983624 1.7593588089373782 44.43391059159953 C 0.0 **** -0.24
26732 H 54.101595980472325 1.6651280036645204 43.82711382104392 H 0.0 **** 0.06
26733 H 52.47620447778225 2.385101509752019 43.913710178816245 H 0.0 **** 0.06
26734 H 53.454904112363835 2.216355337710553 45.39106630867224 H 0.0 **** 0.06
26735 H 52.77363917326744 0.7717651571232693 44.604801920955765 H 0.0 **** 0.06
26736 C 99.61502475752806 97.37743612836019 82.83797607991278 C 0.0 **** -0.24
26737 H 99.19506300196065 98.38007342387814 82.92336784358167 H 0.0 **** 0.06
26738 H 100.65731186788798 97.39255934813718 83.15738181755353 H 0.0 **** 0.06
26739 H 99.55654401497483 97.04717129769494 81.80136756410997 H 0.0 **** 0.06
26740 H 99.05030660847126 96.69276734247956 83.47128582359363 H 0.0 **** 0.06
26741 C 118.86658752541582 47.0608138566235 72.50916096425641 C 0.0 **** -0.24
26742 H 118.40196268854338 46.0790390289284 72.42225277280562 H 0.0 **** 0.06
26743 H 119.09995795161961 47.44144690932633 71.51387359129512 H 0.0 **** 0.06
26744 H 119.78501950048586 46.97765809891727 73.09128038726132 H 0.0 **** 0.06
26745 H 118.17979841679735 47.74473666406863 73.0079298970289 H 0.0 **** 0.06
26746 C 21.663476988750475 73.43747408495068 43.0960925816849 C 0.0 **** -0.24
26747 H 21.212755337574066 72.54092926885585 43.521732706149976 H 0.0 **** 0.06
26748 H 21.19538611078068 73.65940943173024 42.1369847831219 H 0.0 **** 0.06
26749 H 22.730691859084992 73.27372456758857 42.950533037080675 H 0.0 **** 0.06
26750 H 21.514136036459064 74.27636705460154 43.77603302692282 H 0.0 **** 0.06
26751 C 81.83279041758601 57.537424410993594 112.55249554392313 C 0.0 **** -0.24
26752 H 81.86095485381358 56.53521982851311 112.12524403842212 H 0.0 **** 0.06
26753 H 82.76476795319479 58.055171254633535 112.32680509426052 H 0.0 **** 0.06
26754 H 81.70753121928777 57.467571594917615 113.6333576475537 H 0.0 **** 0.06
26755 H 80.99609750867376 58.09040018158282 112.12554601108663 H 0.0 **** 0.06
26756 C 51.11843847383369 81.20066051504858 104.21194019996705 C 0.0 **** -0.24
26757 H 50.32748075697123 81.78803600200109 104.67675626821773 H 0.0 **** 0.06
26758 H 51.886957752138244 80.97444181089372 104.9520641275214 H 0.0 **** 0.06
26759 H 51.559269453290256 81.76934732372911 103.39288066749697 H 0.0 **** 0.06
26760 H 50.70136297889184 80.27078401668723 103.82554552032587 H 0.0 **** 0.06
26761 C 120.05006083352077 31.876197254159365 34.88040470299444 C 0.0 **** -0.24
26762 H 120.62691171809587 31.93824119329446 33.95754407132648 H 0.0 **** 0.06
26763 H 119.78143637125015 30.83619034093425 35.07125219282679 H 0.0 **** 0.06
26764 H 119.14341303946662 32.47295438406155 34.782691802640755 H 0.0 **** 0.06
26765 H 120.64776954327704 32.255532187278334 35.70913471156578 H 0.0 **** 0.06
26766 C 106.4193281612246 26.83218207010077 91.25122036705 C 0.0 **** -0.24
26767 H 105.34988033808122 26.65125189418555 91.35406342469494 H 0.0 **** 0.06
26768 H 106.96515854357801 25.910896755938253 91.45367201422658 H 0.0 **** 0.06
26769 H 106.72805289685616 27.601316156895308 91.95967358442206 H 0.0 **** 0.06
26770 H 106.63539082385316 27.16713209146687 90.23640483071566 H 0.0 **** 0.06
26771 C 58.90734876450037 110.25589559181489 7.279987565366525 C 0.0 **** -0.24
26772 H 59.75253565299036 109.6993363287599 7.685846012736079 H 0.0 **** 0.06
26773 H 58.23070363122753 109.5700953947875 6.770829884415377 H 0.0 **** 0.06
26774 H 59.27093038747762 111.00060459314798 6.57144816961312 H 0.0 **** 0.06
26775 H 58.37804456576674 110.75438565988438 8.09123646228818 H 0.0 **** 0.06
26776 C 22.11613690781678 39.62386252237408 9.607915380926556 C 0.0 **** -0.24
26777 H 21.896435934537664 40.476115560950575 8.963965511004346 H 0.0 **** 0.06
26778 H 22.40114194984352 38.76901298485138 8.99406640723194 H 0.0 **** 0.06
26779 H 21.230225427355577 39.3727550813489 10.191042315164339 H 0.0 **** 0.06
26780 H 22.935120897712977 39.878149862808435 10.281164467823004 H 0.0 **** 0.06
26781 C 73.46446935956283 3.813562319659937 44.780941851165665 C 0.0 **** -0.24
26782 H 74.50698322177792 4.000278325686622 45.03633183453411 H 0.0 **** 0.06
26783 H 73.30799572441691 2.7412747025227446 44.65930529752933 H 0.0 **** 0.06
26784 H 73.22109274421123 4.324455804173425 43.849908692747135 H 0.0 **** 0.06
26785 H 72.82260698569425 4.186026013349249 45.578895848924844 H 0.0 **** 0.06
26786 C 91.97384222297211 16.939994046774757 56.14465369317414 C 0.0 **** -0.24
26787 H 91.2777601251423 17.585071848433017 55.60767369155007 H 0.0 **** 0.06
26788 H 92.94342892404663 16.95984106014879 55.64767600797544 H 0.0 **** 0.06
26789 H 91.59047486503067 15.919723588479087 56.153416350575874 H 0.0 **** 0.06
26790 H 92.0819966368428 17.297120467397008 57.16846638800492 H 0.0 **** 0.06
26791 C 110.22222438957314 100.20128701254282 83.15318707280747 C 0.0 **** -0.24
26792 H 109.57998972188213 99.3549076923959 82.90891912823687 H 0.0 **** 0.06
26793 H 109.99665204418841 100.54995349891465 84.1608442128649 H 0.0 **** 0.06
26794 H 110.04589134098458 101.00695364423021 82.44058265391826 H 0.0 **** 0.06
26795 H 111.2663465198242 99.89159443469038 83.10017142909496 H 0.0 **** 0.06
26796 C 87.91764900741015 93.65850912323151 33.84343811490239 C 0.0 **** -0.24
26797 H 87.20288843834561 94.42738369347765 33.55137594439718 H 0.0 **** 0.06
26798 H 88.88969462563085 94.11739867874249 34.0248570656308 H 0.0 **** 0.06
26799 H 88.00619732159834 92.92345386351184 33.043395555655636 H 0.0 **** 0.06
26800 H 87.57240273333002 93.16763292861157 34.75298506997797 H 0.0 **** 0.06
26801 C 12.795070302007275 40.27749397883122 16.520392035283123 C 0.0 **** -0.24
26802 H 13.3791383590966 40.33426900619085 17.438795658199524 H 0.0 **** 0.06
26803 H 12.725337783670582 41.26955201588365 16.0729432447809 H 0.0 **** 0.06
26804 H 11.794774071763328 39.910509226933726 16.747758940319045 H 0.0 **** 0.06
26805 H 13.281620928742399 39.59724085943438 15.821742422378293 H 0.0 **** 0.06
26806 C 109.6393859965604 113.60954730126952 57.78426396562037 C 0.0 **** -0.24
26807 H 110.38252925584564 114.17212209827343 58.34907880649138 H 0.0 **** 0.06
26808 H 108.89494001437905 114.29498795323607 57.3797390624955 H 0.0 **** 0.06
26809 H 109.15108082104649 112.89054797642208 58.44286491783953 H 0.0 **** 0.06
26810 H 110.12784005616712 113.07873441172839 56.96748039409647 H 0.0 **** 0.06
26811 C 90.27150124266126 67.03946150672508 95.99267904053559 C 0.0 **** -0.24
26812 H 90.04485135754899 67.88853859743293 95.34706142181338 H 0.0 **** 0.06
26813 H 89.43089055509475 66.85821144193375 96.66223799800832 H 0.0 **** 0.06
26814 H 91.16330855923766 67.25816222534877 96.5800093012547 H 0.0 **** 0.06
26815 H 90.44625004060049 66.15526006107433 95.38110345726989 H 0.0 **** 0.06
26816 C 59.66718737578751 106.95458291905055 93.10697628615526 C 0.0 **** -0.24
26817 H 59.900043167724085 107.48271895037612 94.03158790144096 H 0.0 **** 0.06
26818 H 60.56464658121808 106.88711798905976 92.49150603902854 H 0.0 **** 0.06
26819 H 58.89388772789028 107.49806343977056 92.5631226615078 H 0.0 **** 0.06
26820 H 59.31000807219126 105.95238575385832 93.34061453345873 H 0.0 **** 0.06
26821 C 57.05525263971677 64.46277559506387 118.06698827812315 C 0.0 **** -0.24
26822 H 57.41795107800644 65.27351790261679 118.69881569151677 H 0.0 **** 0.06
26823 H 57.104238795757965 63.52306311742166 118.61783398142411 H 0.0 **** 0.06
26824 H 57.677032564660465 64.39291220241324 117.17359808014169 H 0.0 **** 0.06
26825 H 56.02423336713895 64.66148349077088 117.77777823164803 H 0.0 **** 0.06
26826 C 99.25323543314434 47.18201523035078 3.041645340372259 C 0.0 **** -0.24
26827 H 98.86209027798992 46.61875163873703 2.1950765845521065 H 0.0 **** 0.06
26828 H 99.94930641548717 46.55783953566428 3.603078405338728 H 0.0 **** 0.06
26829 H 98.42932590671836 47.48211237444121 3.6894585466652927 H 0.0 **** 0.06
26830 H 99.77221913238193 48.06935737256037 2.6789678249327125 H 0.0 **** 0.06
26831 C 42.57380841844266 23.2426833799384 47.07476004174933 C 0.0 **** -0.24
26832 H 43.53737751232846 23.096405088825023 47.56453497296516 H 0.0 **** 0.06
26833 H 42.467414271111906 24.288479731063518 46.788080157549274 H 0.0 **** 0.06
26834 H 41.77227462717401 22.969573011010397 47.761326465766246 H 0.0 **** 0.06
26835 H 42.520625413162485 22.614288709689276 46.185198415441704 H 0.0 **** 0.06
26836 C 14.208497190069465 84.04123130501458 93.40444383464927 C 0.0 **** -0.24
26837 H 15.10566817665412 84.42957683307051 93.88636923757241 H 0.0 **** 0.06
26838 H 13.77420831656903 83.25617241295618 94.02378127238256 H 0.0 **** 0.06
26839 H 14.469518048946838 83.63123013748853 92.42835452930842 H 0.0 **** 0.06
26840 H 13.485386598662956 84.84693979983498 93.27867018724095 H 0.0 **** 0.06
26841 C 112.05987855392831 54.9394003089987 104.02353875071265 C 0.0 **** -0.24
26842 H 111.49168136815189 54.067836457332305 104.34810388072236 H 0.0 **** 0.06
26843 H 113.07829345085199 54.63679915474228 103.77855955894987 H 0.0 **** 0.06
26844 H 112.08281598018115 55.67792275568178 104.82487675575493 H 0.0 **** 0.06
26845 H 111.5871496662671 55.3733708428245 103.14246378039934 H 0.0 **** 0.06
26846 C 103.12936410640063 27.09098180477605 4.177915496320807 C 0.0 **** -0.24
26847 H 103.34882579077694 26.274181110594185 4.865848887522986 H 0.0 **** 0.06
26848 H 102.95829268074519 26.68908685446388 3.1794431007346216 H 0.0 **** 0.06
26849 H 103.97153179139431 27.781887032841638 4.153428053436741 H 0.0 **** 0.06
26850 H 102.2362339293293 27.618628779731154 4.515464593725765 H 0.0 **** 0.06
26851 C 119.66530147297779 107.33346695204864 122.05867475600164 C 0.0 **** -0.24
26852 H 119.31029792068989 108.06242819819005 122.78707512787469 H 0.0 **** 0.06
26853 H 120.43748713099606 107.78684285322731 121.43786666813699 H 0.0 **** 0.06
26854 H 118.83331161618898 107.01406698119803 121.43094975663365 H 0.0 **** 0.06
26855 H 120.07796930119137 106.47016263832262 122.58087784365074 H 0.0 **** 0.06
26856 C 40.17744143507383 94.24256542455777 61.185655761395644 C 0.0 **** -0.24
26857 H 40.22160206920731 93.161310899385 61.31951265552916 H 0.0 **** 0.06
26858 H 41.160088430382956 94.61081909263959 60.88922482183306 H 0.0 **** 0.06
26859 H 39.88013546050004 94.71314204535662 62.1222847568687 H 0.0 **** 0.06
26860 H 39.44985563007694 94.48299231931122 60.411017209306955 H 0.0 **** 0.06
26861 C 56.88968911941641 70.88505757852192 22.832550890435584 C 0.0 **** -0.24
26862 H 56.30309096985186 70.30369258510487 22.121021201206418 H 0.0 **** 0.06
26863 H 56.24244256340682 71.60371715878668 23.335131656213576 H 0.0 **** 0.06
26864 H 57.681416345196304 71.41527255655762 22.303480768907264 H 0.0 **** 0.06
26865 H 57.33213070282668 70.21538026593302 23.57101277290832 H 0.0 **** 0.06
26866 C 86.19129391128095 7.237237209863736 63.94524085061476 C 0.0 **** -0.24
26867 H 86.52685343647306 6.350313695317936 63.40654456581651 H 0.0 **** 0.06
26868 H 87.00091252989384 7.607346533577783 64.57396725451596 H 0.0 **** 0.06
26869 H 85.33475710373946 6.980017919346409 64.5681943409368 H 0.0 **** 0.06
26870 H 85.90283626672289 8.008179338079003 63.231069636268906 H 0.0 **** 0.06
26871 C 50.725930856213864 16.367307099538664 16.074906054583757 C 0.0 **** -0.24
26872 H 49.93248882899232 15.713713109341143 16.438694219304182 H 0.0 **** 0.06
26873 H 50.91580523359116 16.15411273393164 15.02263657871119 H 0.0 **** 0.06
26874 H 51.63352924803604 16.19195678449347 16.65131778162997 H 0.0 **** 0.06
26875 H 50.41912059369585 17.406984623342225 16.186508948147473 H 0.0 **** 0.06
26876 C 52.02479673858089 22.7720555773966 37.69114064521709 C 0.0 **** -0.24
26877 H 51.021726203738446 22.683322172552778 38.10858887481856 H 0.0 **** 0.06
26878 H 51.958864822581454 22.871330994695626 36.607185128565575 H 0.0 **** 0.06
26879 H 52.60186955800296 21.881737838409464 37.939781712582295 H 0.0 **** 0.06
26880 H 52.51553698799457 23.651319834235295 38.10748240045642 H 0.0 **** 0.06
26881 C 40.42799902618344 26.764348021833484 43.73916154815558 C 0.0 **** -0.24
26882 H 41.28762540455244 26.842289691455733 43.07197804285914 H 0.0 **** 0.06
26883 H 40.579590711942444 25.935441700374383 44.431711538123835 H 0.0 **** 0.06
26884 H 39.52797631687807 26.586145956957154 43.15030307542703 H 0.0 **** 0.06
26885 H 40.31810823365521 27.692332863007096 44.30022417654541 H 0.0 **** 0.06
26886 C 42.62339409058746 115.21234731944605 51.42407691736412 C 0.0 **** -0.24
26887 H 42.06886728330775 116.0316902628083 50.96642716110626 H 0.0 **** 0.06
26888 H 43.682790293205265 115.31274928113291 51.18549290902342 H 0.0 **** 0.06
26889 H 42.252361911734894 114.26283481368083 51.03824242819422 H 0.0 **** 0.06
26890 H 42.49066435708464 115.24238465099313 52.505308010426745 H 0.0 **** 0.06
26891 C 92.3928131338806 18.15956929158126 44.73703830528987 C 0.0 **** -0.24
26892 H 93.25520503635599 18.280114116018428 44.08178548889235 H 0.0 **** 0.06
26893 H 91.84507129716067 17.260227251924018 44.45500653308332 H 0.0 **** 0.06
26894 H 91.74130866501727 19.02796992754074 44.64265950853951 H 0.0 **** 0.06
26895 H 92.73181607374232 18.07082657798426 45.76950375486118 H 0.0 **** 0.06
26896 C 58.209014296783266 14.107494599187078 32.82574809388113 C 0.0 **** -0.24
26897 H 57.21703132077374 13.71203523990647 32.608221591596234 H 0.0 **** 0.06
26898 H 58.12719131958892 15.15464746667692 33.11606510776659 H 0.0 **** 0.06
26899 H 58.83635752356747 14.023891221749125 31.937796445103103 H 0.0 **** 0.06
26900 H 58.65618636329975 13.538182059581061 33.64085761136106 H 0.0 **** 0.06
26901 C 17.43572520500571 10.852588940732886 76.61020194120428 C 0.0 **** -0.24
26902 H 17.953207797636153 11.686314827819416 76.13502926461183 H 0.0 **** 0.06
26903 H 16.398663842341477 11.13018889975811 76.80158945990783 H 0.0 **** 0.06
26904 H 17.92728231276314 10.610118846792346 77.55208407948021 H 0.0 **** 0.06
26905 H 17.46310362336726 9.985252660702997 75.95059574910536 H 0.0 **** 0.06
26906 C 77.79231830804895 75.39110736354036 3.692933355778262 C 0.0 **** -0.24
26907 H 76.82078306718006 75.88412970292939 3.6622842779375 H 0.0 **** 0.06
26908 H 77.97563582907318 75.01222350395656 4.698979528921633 H 0.0 **** 0.06
26909 H 78.57109639431292 76.1062492981329 3.4261921160907516 H 0.0 **** 0.06
26910 H 77.80180335475106 74.5628198498446 2.9843876886684395 H 0.0 **** 0.06
26911 C 106.5322672024638 70.94540324585282 97.86025137920652 C 0.0 **** -0.24
26912 H 105.52709120286175 70.76810522230537 98.24217509702132 H 0.0 **** 0.06
26913 H 107.24962704185089 70.87167603577191 98.67800153960766 H 0.0 **** 0.06
26914 H 106.58308486627709 71.9414620344431 97.42001666090391 H 0.0 **** 0.06
26915 H 106.76850653653548 70.1998191631948 97.10046487583821 H 0.0 **** 0.06
26916 C 118.02378355836557 53.42781823549552 94.95555734843165 C 0.0 **** -0.24
26917 H 118.61378904040151 52.824174875212805 95.64607122996995 H 0.0 **** 0.06
26918 H 118.44271430281242 53.344769760057375 93.9523753367342 H 0.0 **** 0.06
26919 H 118.0471404443483 54.469716943680595 95.27425413629442 H 0.0 **** 0.06
26920 H 116.99425441616688 53.07249012198878 94.95068897945825 H 0.0 **** 0.06
26921 C 0.5715608408088713 51.56552516423109 85.14301488932423 C 0.0 **** -0.24
26922 H 0.5650338529616761 51.52156914725498 86.2312015856499 H 0.0 **** 0.06
26923 H 0.8439119516075948 50.58956655503691 84.74134239882395 H 0.0 **** 0.06
26924 H 1.2967510167525234 52.30966384159092 84.81351227481895 H 0.0 **** 0.06
26925 H -0.42019435917535475 51.841772903447406 84.78489487989086 H 0.0 **** 0.06
26926 C 45.99229004013686 15.923016223533722 86.93705276934605 C 0.0 **** -0.24
26927 H 45.80957321961404 16.644985345244777 87.7321497493729 H 0.0 **** 0.06
26928 H 47.06351103205172 15.858820726417747 86.74312825519095 H 0.0 **** 0.06
26929 H 45.4776720756834 16.243662564433365 86.03098078974327 H 0.0 **** 0.06
26930 H 45.61839945087436 14.9453113730779 87.24073215906643 H 0.0 **** 0.06
26931 C 63.43430842312381 55.35090225522459 71.95056093767732 C 0.0 **** -0.24
26932 H 63.63027226194876 55.9166890219736 71.04002669395317 H 0.0 **** 0.06
26933 H 64.3807737207652 55.080075337863796 72.42017720475144 H 0.0 **** 0.06
26934 H 62.87843624830728 54.4460549117134 71.70475096469659 H 0.0 **** 0.06
26935 H 62.84820010447456 55.96105917923459 72.63894003659954 H 0.0 **** 0.06
26936 C 56.99759482431409 60.7883035967327 6.080643094970128 C 0.0 **** -0.24
26937 H 57.79555824887021 60.807560913323584 6.823267283939288 H 0.0 **** 0.06
26938 H 56.709773498737206 61.8095414594365 5.830448658448034 H 0.0 **** 0.06
26939 H 56.1360262800946 60.25701608435952 6.487406489143609 H 0.0 **** 0.06
26940 H 57.348253616333864 60.27851063016777 5.18370127392248 H 0.0 **** 0.06
26941 C 77.91736862324046 100.75917040698417 111.23163625860388 C 0.0 **** -0.24
26942 H 78.79368583009244 101.28316278849346 111.61285043820033 H 0.0 **** 0.06
26943 H 77.71625030211334 101.08415308323947 110.21015797354426 H 0.0 **** 0.06
26944 H 77.05647887944056 100.98576163677549 111.86056979150669 H 0.0 **** 0.06
26945 H 78.10290181290983 99.68462407017773 111.24157578546726 H 0.0 **** 0.06
26946 C 35.714356939479444 2.5270642798577114 0.8746809383764766 C 0.0 **** -0.24
26947 H 35.09269855769179 2.929376673262425 1.674313793314555 H 0.0 **** 0.06
26948 H 35.11555509288695 2.4144890047308962 -0.029289913829980918 H 0.0 **** 0.06
26949 H 36.107185240142655 1.555366054655508 1.174204929641041 H 0.0 **** 0.06
26950 H 36.54236624192589 3.2097565763133673 0.6800632804120799 H 0.0 **** 0.06
26951 C 10.926015419582175 11.956545370123902 78.83750258700891 C 0.0 **** -0.24
26952 H 11.737964285105683 11.673610158568053 78.16827408819839 H 0.0 **** 0.06
26953 H 10.051988928624546 11.339905927277112 78.6286758609127 H 0.0 **** 0.06
26954 H 10.676869903472259 13.006217853000994 78.68339128418506 H 0.0 **** 0.06
26955 H 11.238585400005942 11.806010470063882 79.87139980008766 H 0.0 **** 0.06
26956 C 90.04292923645298 60.12453092463383 42.81133600746031 C 0.0 **** -0.24
26957 H 91.06654251881679 60.466099686381625 42.65988067163585 H 0.0 **** 0.06
26958 H 89.37705637782813 60.98608178588819 42.870948425600574 H 0.0 **** 0.06
26959 H 89.98293562896811 59.55524479073108 43.73957965102542 H 0.0 **** 0.06
26960 H 89.74345198662715 59.49027216088072 41.97661607755123 H 0.0 **** 0.06
26961 C 7.128789709705586 60.68371079547013 72.2737913629955 C 0.0 **** -0.24
26962 H 6.6499746825662385 61.469404279154766 71.69036271662233 H 0.0 **** 0.06
26963 H 8.13512616346486 60.9992051034917 72.55122689564507 H 0.0 **** 0.06
26964 H 7.184896493723244 59.771679282750235 71.67879327381837 H 0.0 **** 0.06
26965 H 6.546981331002769 60.493739677095014 73.17579475501464 H 0.0 **** 0.06
26966 C 96.85222032290181 87.60209438399005 80.30868628333977 C 0.0 **** -0.24
26967 H 95.84478068459731 87.71890929111407 79.90891785279575 H 0.0 **** 0.06
26968 H 97.03761598739794 88.37281868761772 81.05688988512222 H 0.0 **** 0.06
26969 H 97.57677672741158 87.69922951918025 79.49909502296433 H 0.0 **** 0.06
26970 H 96.94913534280434 86.61779854352329 80.7667553873103 H 0.0 **** 0.06
26971 C 58.661000504398906 98.3673656140015 4.056857764022645 C 0.0 **** -0.24
26972 H 59.05761121000615 98.51778305369425 3.0523187043248043 H 0.0 **** 0.06
26973 H 57.62064270580689 98.69469184062768 4.088487720240236 H 0.0 **** 0.06
26974 H 59.24630805589842 98.94754136826296 4.768855786254498 H 0.0 **** 0.06
26975 H 58.71737195207981 97.3099168763678 4.314686277371678 H 0.0 **** 0.06
26976 C 51.54573541428749 50.58817395349041 21.025383379581776 C 0.0 **** -0.24
26977 H 51.57986152260224 50.53369492158441 19.937077081950275 H 0.0 **** 0.06
26978 H 51.51867326377135 49.57994478264169 21.4392695156818 H 0.0 **** 0.06
26979 H 50.652435117131546 51.13216974579848 21.333252376790178 H 0.0 **** 0.06
26980 H 52.43156584735971 51.10815390753021 21.389878113185652 H 0.0 **** 0.06
26981 C 0.20551777831099116 93.1415364579687 40.050429765852925 C 0.0 **** -0.24
26982 H -0.4528521550692801 92.27504394736175 40.10041790676706 H 0.0 **** 0.06
26983 H -0.3870770037468674 94.03660577769583 39.8562093393183 H 0.0 **** 0.06
26984 H 0.9289470036007685 93.00291679658682 39.24774127943658 H 0.0 **** 0.06
26985 H 0.7319251960753945 93.25316691257686 40.99844928708728 H 0.0 **** 0.06
26986 C 78.76656258818736 60.30178129885497 54.15741780428092 C 0.0 **** -0.24
26987 H 79.08972148222864 59.29287327075571 54.41637749355467 H 0.0 **** 0.06
26988 H 77.77190843227493 60.48036421857022 54.565944891736 H 0.0 **** 0.06
26989 H 78.7388089150281 60.406422385416654 53.07251175244907 H 0.0 **** 0.06
26990 H 79.46659442053459 61.025419748848414 54.574386539711064 H 0.0 **** 0.06
26991 C 89.03691495772378 87.0583118666791 4.029548350188078 C 0.0 **** -0.24
26992 H 88.97719013558901 88.14455643746226 3.9640747730612116 H 0.0 **** 0.06
26993 H 89.15118541832635 86.76310498671222 5.072616082473598 H 0.0 **** 0.06
26994 H 89.89295515070467 86.70586000893388 3.4556878208194153 H 0.0 **** 0.06
26995 H 88.12317821324325 86.61983251411414 3.6255678122798347 H 0.0 **** 0.06
26996 C 78.80153111201736 66.11711344614608 37.82652530679263 C 0.0 **** -0.24
26997 H 79.02273616342336 65.66911578483854 38.795176709316934 H 0.0 **** 0.06
26998 H 78.73172257912529 67.20019029093879 37.93503583728756 H 0.0 **** 0.06
26999 H 77.8548229046284 65.7275714068112 37.454603809909486 H 0.0 **** 0.06
27000 H 79.59718450418268 65.87264710501344 37.123461325052006 H 0.0 **** 0.06
27001 C 121.89332237842628 80.95840789038863 1.923535805651838 C 0.0 **** -0.24
27002 H 122.34856365838921 80.64076395133279 2.86218904081818 H 0.0 **** 0.06
27003 H 122.01963554182188 80.17547935058658 1.176070763337691 H 0.0 **** 0.06
27004 H 122.37342538311815 81.87316477809946 1.5773378617198262 H 0.0 **** 0.06
27005 H 120.83001521621944 81.14301679300073 2.081157636031918 H 0.0 **** 0.06
27006 C 12.134158242509812 58.37972044420414 1.7614166749709455 C 0.0 **** -0.24
27007 H 12.672347653375397 57.63915473742267 1.1685863444977969 H 0.0 **** 0.06
27008 H 12.792654018332684 59.22120530703339 1.9755886597594952 H 0.0 **** 0.06
27009 H 11.807411734141738 57.92602090934514 2.697189932891405 H 0.0 **** 0.06
27010 H 11.265512145167975 58.72901135510847 1.2039098094007414 H 0.0 **** 0.06
27011 C 79.06792428452397 68.61028303233616 98.34646791070662 C 0.0 **** -0.24
27012 H 77.98807649018781 68.61819606845597 98.19770883369785 H 0.0 **** 0.06
27013 H 79.30995983726822 67.99276336547894 99.21229726062523 H 0.0 **** 0.06
27014 H 79.4181716342552 69.62831269377727 98.51688367103802 H 0.0 **** 0.06
27015 H 79.55284750484333 68.20165856558702 97.46070859446976 H 0.0 **** 0.06
27016 C 30.102222749902474 8.21508493083337 87.9753082397911 C 0.0 **** -0.24
27017 H 29.700254344692134 7.718731857604212 88.85917826220171 H 0.0 **** 0.06
27018 H 30.874794687779243 7.590451987557458 87.52790420974773 H 0.0 **** 0.06
27019 H 30.53228159318359 9.174636934084788 88.26298252206146 H 0.0 **** 0.06
27020 H 29.300931349063006 8.376682885789918 87.25471453736014 H 0.0 **** 0.06
27021 C 16.678924411689266 47.397616213463444 42.75996904666826 C 0.0 **** -0.24
27022 H 17.520167242539316 46.8413137869805 43.1759430308241 H 0.0 **** 0.06
27023 H 17.025314471316165 48.00772954156066 41.92506435228606 H 0.0 **** 0.06
27024 H 16.253784154686173 48.040663263065944 43.52963215564532 H 0.0 **** 0.06
27025 H 15.920163185901146 46.69846191545645 42.41057998593024 H 0.0 **** 0.06
27026 C 31.850995776495537 67.4472436491449 96.80449374784763 C 0.0 **** -0.24
27027 H 31.681920595467687 68.35175421806213 96.2195583787612 H 0.0 **** 0.06
27028 H 31.820099279074967 67.69139136032862 97.86668463003164 H 0.0 **** 0.06
27029 H 32.82696507419026 67.03150029096119 96.55446873644166 H 0.0 **** 0.06
27030 H 31.074644382815414 66.71664038264598 96.57653425585843 H 0.0 **** 0.06
27031 C 109.85724886337093 96.62537891631928 53.62404682109619 C 0.0 **** -0.24
27032 H 110.58040029912587 96.12401163845786 52.97981778409516 H 0.0 **** 0.06
27033 H 110.31875240679881 96.8389881662024 54.588683931409804 H 0.0 **** 0.06
27034 H 108.99179605880772 95.98049320129763 53.76927033296843 H 0.0 **** 0.06
27035 H 109.54214851236182 97.55895402925526 53.15785972260207 H 0.0 **** 0.06
27036 C 20.72422196519497 43.91319966579837 65.14128852888928 C 0.0 **** -0.24
27037 H 20.650719522974967 42.82706602838874 65.18650122448219 H 0.0 **** 0.06
27038 H 19.727900109577877 44.348509593105575 65.22236374698673 H 0.0 **** 0.06
27039 H 21.174583370044715 44.20767847787715 64.19443011759643 H 0.0 **** 0.06
27040 H 21.344478792289962 44.26925491325426 65.96490637415934 H 0.0 **** 0.06
27041 C 81.54747987723829 94.84845443221937 98.2129559892715 C 0.0 **** -0.24
27042 H 81.10732641098352 94.56678667551586 99.16989452914797 H 0.0 **** 0.06
27043 H 82.63296501946394 94.8756008090721 98.30599461213635 H 0.0 **** 0.06
27044 H 81.1820232727134 95.83317108218364 97.92106776319946 H 0.0 **** 0.06
27045 H 81.26528486105155 94.11759248769175 97.4544502365764 H 0.0 **** 0.06
27046 C 0.3439100588720976 119.44040752655073 119.81552142201488 C 0.0 **** -0.24
27047 H 1.06740177733775 119.06805484067023 120.54120962887482 H 0.0 **** 0.06
27048 H -0.3008641511414254 120.17899480172277 120.29230985551612 H 0.0 **** 0.06
27049 H -0.26129205015304535 118.6119143642975 119.44804544380744 H 0.0 **** 0.06
27050 H 0.872312699409008 119.90303868535581 118.98160822517026 H 0.0 **** 0.06
27051 C 14.710660330243112 22.07557796569941 29.91722478890675 C 0.0 **** -0.24
27052 H 14.9765062007727 21.020047338553326 29.86192393124159 H 0.0 **** 0.06
27053 H 14.907054038174788 22.550017557075535 28.955195281128184 H 0.0 **** 0.06
27054 H 15.306981512137234 22.560484498779033 30.689796341167124 H 0.0 **** 0.06
27055 H 13.652803784542275 22.17163804298528 30.160763474488647 H 0.0 **** 0.06
27056 C 58.86133852704489 88.44690172336783 15.42931169700637 C 0.0 **** -0.24
27057 H 58.22516465330193 87.98146238727418 16.18139220679973 H 0.0 **** 0.06
27058 H 59.29493040891617 87.67572144151981 14.792364132574733 H 0.0 **** 0.06
27059 H 59.65952473462346 89.00247225261438 15.921433923057066 H 0.0 **** 0.06
27060 H 58.26577473275631 89.12905390134023 14.821172403723779 H 0.0 **** 0.06
27061 C 10.688203957488895 96.27259828678973 114.03502015994539 C 0.0 **** -0.24
27062 H 11.516199897339817 96.03455251392083 114.70235068769645 H 0.0 **** 0.06
27063 H 9.768769989600457 95.84001818416738 114.42855633494409 H 0.0 **** 0.06
27064 H 10.888818614110505 95.86239813942876 113.04526982347807 H 0.0 **** 0.06
27065 H 10.579149297983776 97.35563009696997 113.96425006540497 H 0.0 **** 0.06
27066 C 45.52537510504928 114.71408426210837 83.70353659397878 C 0.0 **** -0.24
27067 H 46.39946267646843 114.30746440403283 83.19403940542091 H 0.0 **** 0.06
27068 H 44.81137966845084 115.07713380191868 82.96461261311993 H 0.0 **** 0.06
27069 H 45.831882273940664 115.53675798844006 84.34850507984993 H 0.0 **** 0.06
27070 H 45.0611087650079 113.93290416780644 84.30587336217101 H 0.0 **** 0.06
27071 C 86.87415003215017 57.29928827993797 90.79241975605888 C 0.0 **** -0.24
27072 H 85.85294696755523 57.11096683778186 91.12528988271822 H 0.0 **** 0.06
27073 H 87.53280532753553 57.359948408956626 91.65958799625551 H 0.0 **** 0.06
27074 H 86.90889086874017 58.24019697285996 90.24291629342639 H 0.0 **** 0.06
27075 H 87.20085660244047 56.487176631959926 90.14259159294454 H 0.0 **** 0.06
27076 C 73.42712281592486 19.30238208598348 106.2197670438575 C 0.0 **** -0.24
27077 H 72.45581423335199 19.72095446642868 105.95761463028666 H 0.0 **** 0.06
27078 H 74.11837430986583 20.110880139829675 106.45741676737177 H 0.0 **** 0.06
27079 H 73.81404258052964 18.728571177059592 105.37831044654715 H 0.0 **** 0.06
27080 H 73.31832083248298 18.64941636355053 107.08611746934093 H 0.0 **** 0.06
27081 C 100.33763820723945 1.9853720401012858 78.15330209267108 C 0.0 **** -0.24
27082 H 99.2652362616941 1.8317369652810829 78.26664392380621 H 0.0 **** 0.06
27083 H 100.51833185401699 2.7277525080205063 77.37518562353767 H 0.0 **** 0.06
27084 H 100.81134604482082 1.0438870691250735 77.87468572408443 H 0.0 **** 0.06
27085 H 100.7567992803813 2.337642142448882 79.09603531210064 H 0.0 **** 0.06
27086 C 45.36526707224607 74.27539995675306 17.077976522419572 C 0.0 **** -0.24
27087 H 45.58915679336042 74.70111281295883 18.05646215049565 H 0.0 **** 0.06
27088 H 44.93286613585397 75.04427980563216 16.437681013627902 H 0.0 **** 0.06
27089 H 44.65552787704274 73.45594343119038 17.191344974805354 H 0.0 **** 0.06
27090 H 46.28473523078179 73.9002702301564 16.62713708867822 H 0.0 **** 0.06
27091 C 3.941297925280651 77.4220127288441 59.18067892274132 C 0.0 **** -0.24
27092 H 3.9276118039709615 76.3465743953571 59.35210266934675 H 0.0 **** 0.06
27093 H 4.736873292224544 77.87423995254537 59.773273667471216 H 0.0 **** 0.06
27094 H 2.9821581759674984 77.84920301358349 59.47312297437222 H 0.0 **** 0.06
27095 H 4.118857309658068 77.61894931008857 58.12318386119213 H 0.0 **** 0.06
27096 C 97.67589457213091 111.62821748241618 11.946866242282017 C 0.0 **** -0.24
27097 H 98.49747754610621 111.24392926050902 12.552335625024735 H 0.0 **** 0.06
27098 H 98.06961088698336 112.30535840034375 11.18872985548942 H 0.0 **** 0.06
27099 H 96.97486873369655 112.16521574048676 12.585905973362227 H 0.0 **** 0.06
27100 H 97.16300839367244 110.79777250299946 11.462143633066471 H 0.0 **** 0.06
27101 C 18.801637199429948 109.2524063748744 6.280344367354132 C 0.0 **** -0.24
27102 H 18.715873528883264 110.07453326947521 5.569890931181977 H 0.0 **** 0.06
27103 H 17.81224785850347 108.99044975022309 6.655203786429318 H 0.0 **** 0.06
27104 H 19.437594470907612 109.55637317241971 7.112182514084161 H 0.0 **** 0.06
27105 H 19.24310789463881 108.38842560889049 5.783205540795009 H 0.0 **** 0.06
27106 C 111.32046940475146 1.5402724017035894 108.06662590440018 C 0.0 **** -0.24
27107 H 111.33853724577651 2.3500893236093248 108.7965918516141 H 0.0 **** 0.06
27108 H 110.33232654976803 1.0790857486629193 108.06032057792933 H 0.0 **** 0.06
27109 H 112.06893621459062 0.7937951545335977 108.33406810500975 H 0.0 **** 0.06
27110 H 111.54293274377176 1.9389064606004354 107.07632891166952 H 0.0 **** 0.06
27111 C 41.92805113213308 71.85724794016505 80.95775319444249 C 0.0 **** -0.24
27112 H 41.41609690665899 72.34823851671132 81.78461665681175 H 0.0 **** 0.06
27113 H 42.271652682006845 70.8732020146588 81.27615341898604 H 0.0 **** 0.06
27114 H 42.78344336630062 72.4597480061353 80.65100580005173 H 0.0 **** 0.06
27115 H 41.241082831617575 71.74854612513622 80.118035598353 H 0.0 **** 0.06
27116 C 71.71417053031928 15.411992500690701 66.07144553699595 C 0.0 **** -0.24
27117 H 71.85711901997797 16.082930000242982 65.22384670445615 H 0.0 **** 0.06
27118 H 70.65558668165772 15.169914248663758 66.16809701861723 H 0.0 **** 0.06
27119 H 72.06076646619951 15.89998608129946 66.9824030837924 H 0.0 **** 0.06
27120 H 72.28331195717001 14.496377847287022 65.9107595971563 H 0.0 **** 0.06
27121 C 18.57909986566588 66.39954531378183 77.81366623413095 C 0.0 **** -0.24
27122 H 17.675883641338956 65.87266275480596 77.50509472029319 H 0.0 **** 0.06
27123 H 18.35077070180455 67.45603748550545 77.96170113284325 H 0.0 **** 0.06
27124 H 19.34122076230139 66.29678004674608 77.04203089539232 H 0.0 **** 0.06
27125 H 18.94742087159345 65.9730401195603 78.74747144192236 H 0.0 **** 0.06
27126 C 50.768125824782715 80.37502096068368 52.68908000237303 C 0.0 **** -0.24
27127 H 51.45651804782614 79.79327974525947 52.076052731345214 H 0.0 **** 0.06
27128 H 49.903888480745195 79.76126991490665 52.944132205802305 H 0.0 **** 0.06
27129 H 50.438368709040844 81.25301254985908 52.13230695460609 H 0.0 **** 0.06
27130 H 51.2714057168825 80.69183881956727 53.602055835998726 H 0.0 **** 0.06
27131 C 6.0116924308454145 109.94978743091906 107.48076205947334 C 0.0 **** -0.24
27132 H 5.433989563043838 109.30219306100392 108.1409954342578 H 0.0 **** 0.06
27133 H 6.5837886043751155 109.33844561768868 106.78281199797146 H 0.0 **** 0.06
27134 H 6.692731811619922 110.5588351670502 108.074332854884 H 0.0 **** 0.06
27135 H 5.333773988758537 110.59833764185976 106.92508284699036 H 0.0 **** 0.06
27136 C 93.29232599275747 55.36552397400715 42.27263176310805 C 0.0 **** -0.24
27137 H 93.54521065094914 54.90041434329834 43.225078335301305 H 0.0 **** 0.06
27138 H 93.56308911098844 56.42138163110229 42.300971101850735 H 0.0 **** 0.06
27139 H 92.22167572318534 55.26936910538086 42.09391876480305 H 0.0 **** 0.06
27140 H 93.84020977599695 54.870464399578054 41.47048243758235 H 0.0 **** 0.06
27141 C 103.18770356666141 121.87174298766928 108.13863720691822 C 0.0 **** -0.24
27142 H 102.83237441856312 122.32192525142463 107.21214424361963 H 0.0 **** 0.06
27143 H 103.94467442074867 122.51505237381187 108.58767318563866 H 0.0 **** 0.06
27144 H 103.6216507666721 120.894281326324 107.92440895799473 H 0.0 **** 0.06
27145 H 102.35210601325201 121.75482496006134 108.82922179370823 H 0.0 **** 0.06
27146 C 76.54275445594104 56.42025226563146 90.53137375098845 C 0.0 **** -0.24
27147 H 75.66958222774446 56.19230648547159 89.91917593161727 H 0.0 **** 0.06
27148 H 76.28986206506772 57.202782252264655 91.24668374025754 H 0.0 **** 0.06
27149 H 77.35558480780523 56.761662969627594 89.89056124497242 H 0.0 **** 0.06
27150 H 76.85361118774347 55.52340200329746 91.0674566200878 H 0.0 **** 0.06
27151 C 112.01306155363788 7.323633627307217 9.135952237842531 C 0.0 **** -0.24
27152 H 111.43394519350892 6.4425104888074145 8.857570397134793 H 0.0 **** 0.06
27153 H 111.34949176387212 8.071462491774959 9.570839908360938 H 0.0 **** 0.06
27154 H 112.49563930135115 7.735380223724626 8.249435684452664 H 0.0 **** 0.06
27155 H 112.77310128581792 7.042374343928408 9.865621348022984 H 0.0 **** 0.06
27156 C 78.22127201234255 89.03468704045426 105.2000462503824 C 0.0 **** -0.24
27157 H 77.1511518102918 89.24275026943394 105.20664902750349 H 0.0 **** 0.06
27158 H 78.52621200750662 88.72881716929041 104.19889921250734 H 0.0 **** 0.06
27159 H 78.43969306034265 88.23326669470862 105.90609003469018 H 0.0 **** 0.06
27160 H 78.76803268068508 89.93250059737099 105.48849854158084 H 0.0 **** 0.06
27161 C 20.4882442176646 90.50299947137796 60.37072059455096 C 0.0 **** -0.24
27162 H 21.28982903761745 89.94583357566378 60.85687297575748 H 0.0 **** 0.06
27163 H 20.918789783528155 91.25062018786181 59.70419082399144 H 0.0 **** 0.06
27164 H 19.879285844391767 90.99733535127146 61.12750977053679 H 0.0 **** 0.06
27165 H 19.866765092689036 89.81694379830591 59.79503973527511 H 0.0 **** 0.06
27166 C 95.29539491774491 120.49578477141412 110.72006807503288 C 0.0 **** -0.24
27167 H 94.41316697248624 121.092992868536 110.49068751255561 H 0.0 **** 0.06
27168 H 96.12557096396799 120.81860859295216 110.09261960240786 H 0.0 **** 0.06
27169 H 95.08166131516575 119.44392511678271 110.52880810832988 H 0.0 **** 0.06
27170 H 95.55974152788363 120.62799279990492 111.76949318745079 H 0.0 **** 0.06
27171 C 75.44947569561256 65.41318658205094 61.95572283316358 C 0.0 **** -0.24
27172 H 75.41094467415286 64.44846203158212 62.461094975351386 H 0.0 **** 0.06
27173 H 76.23706749558187 65.397374649618 61.20257394295902 H 0.0 **** 0.06
27174 H 75.6596489854393 66.19655030783451 62.68490708324828 H 0.0 **** 0.06
27175 H 74.49064510608747 65.61083477950231 61.47646275738089 H 0.0 **** 0.06
27176 C 38.70139950262667 113.4900537065457 94.59920674289685 C 0.0 **** -0.24
27177 H 37.73841538933269 113.02055493704395 94.79780830994173 H 0.0 **** 0.06
27178 H 38.755638802000256 114.44378272518611 95.12644418570821 H 0.0 **** 0.06
27179 H 38.8090885301659 113.66040067391489 93.527445025361 H 0.0 **** 0.06
27180 H 39.502308055774556 112.83694043562429 94.94604342687882 H 0.0 **** 0.06
27181 C 78.13811472702344 27.124163096252914 101.08456166218423 C 0.0 **** -0.24
27182 H 79.17860832384238 26.976737094853178 101.37217724161275 H 0.0 **** 0.06
27183 H 78.02486987682076 26.92728852376206 100.01807247576357 H 0.0 **** 0.06
27184 H 77.84367107201427 28.15215686943972 101.2981685926593 H 0.0 **** 0.06
27185 H 77.5046272094711 26.44033621002245 101.64910967445763 H 0.0 **** 0.06
27186 C 58.73392550182992 22.282947251497205 103.03225740311618 C 0.0 **** -0.24
27187 H 58.356624642046505 22.25402334691705 104.05408691676914 H 0.0 **** 0.06
27188 H 59.117279032444266 21.299998654314663 102.75923133826242 H 0.0 **** 0.06
27189 H 59.53614043400257 23.018101205262496 102.96235719134157 H 0.0 **** 0.06
27190 H 57.927362441672294 22.560461808508023 102.35456295956038 H 0.0 **** 0.06
27191 C 10.998445727889475 84.06722616276446 78.38991134432308 C 0.0 **** -0.24
27192 H 10.602143691254412 83.75450243592346 79.35560314667293 H 0.0 **** 0.06
27193 H 10.48468923952393 84.97161339466138 78.06214587819537 H 0.0 **** 0.06
27194 H 10.84154594105786 83.27539244453826 77.6579428276655 H 0.0 **** 0.06
27195 H 12.065705244909054 84.26941380534564 78.48303726479537 H 0.0 **** 0.06
27196 C 3.585111876747874 95.50735390183593 3.7442384223620593 C 0.0 **** -0.24
27197 H 3.2911680922554467 94.45703972509682 3.7523251858623325 H 0.0 **** 0.06
27198 H 2.8235742015303913 96.09330875860996 3.2303616254505982 H 0.0 **** 0.06
27199 H 4.538027910225736 95.61291626353812 3.2251673489439696 H 0.0 **** 0.06
27200 H 3.688495941585188 95.86327992018212 4.769396237452042 H 0.0 **** 0.06
27201 C 7.853836061227586 73.49324413352971 84.6298943078489 C 0.0 **** -0.24
27202 H 8.143477102317096 73.77540751859448 83.617797965421 H 0.0 **** 0.06
27203 H 7.411700480897473 74.35340509295321 85.13296328955283 H 0.0 **** 0.06
27204 H 8.733966052679584 73.16319434586413 85.18079031096099 H 0.0 **** 0.06
27205 H 7.126198268769073 72.68330275240339 84.58589098929852 H 0.0 **** 0.06
27206 C 15.475401739189465 15.375085274958991 33.147187937269905 C 0.0 **** -0.24
27207 H 15.447192144305035 14.29035054677636 33.255109077183306 H 0.0 **** 0.06
27208 H 15.907647795800841 15.632423622680193 32.1791690517278 H 0.0 **** 0.06
27209 H 16.08454776011419 15.803548006885322 33.9426217183036 H 0.0 **** 0.06
27210 H 14.463070153529145 15.772418603571285 33.21020408985237 H 0.0 **** 0.06
27211 C 66.28701397112059 37.57060648209301 28.350643821764358 C 0.0 **** -0.24
27212 H 66.15695285691845 38.45842293613265 27.73207599154931 H 0.0 **** 0.06
27213 H 65.50934479004357 36.84491700118042 28.11124961818163 H 0.0 **** 0.06
27214 H 66.21601744809257 37.84663001265744 29.402208642904142 H 0.0 **** 0.06
27215 H 67.26549011617308 37.13217135185343 28.154837303730808 H 0.0 **** 0.06
27216 C 106.9330951211036 32.17404310011898 41.343643418101856 C 0.0 **** -0.24
27217 H 106.84487201482199 31.872829140868248 42.38750258787741 H 0.0 **** 0.06
27218 H 105.95438350472153 32.11623467964341 40.865150990928825 H 0.0 **** 0.06
27219 H 107.62711738877562 31.507386283345085 40.83145504624655 H 0.0 **** 0.06
27220 H 107.30431788422501 33.19704974752332 41.290519630689886 H 0.0 **** 0.06
27221 C 18.678599114980102 113.21814800706258 64.98738026086073 C 0.0 **** -0.24
27222 H 18.020834250557584 113.20734329163884 65.85706458700173 H 0.0 **** 0.06
27223 H 19.0697317816514 112.21535982381343 64.81644984193807 H 0.0 **** 0.06
27224 H 19.50544051554104 113.9062629585018 65.16618545878777 H 0.0 **** 0.06
27225 H 18.1170499976171 113.54425413073875 64.11243085384135 H 0.0 **** 0.06
27226 C 115.6507418031652 92.60789733003224 23.37909102761779 C 0.0 **** -0.24
27227 H 115.95492733372915 91.76846407863482 22.75353277237582 H 0.0 **** 0.06
27228 H 114.85366202781852 92.28963315972013 24.050835670888887 H 0.0 **** 0.06
27229 H 115.29152670087039 93.41982365475042 22.747018828881664 H 0.0 **** 0.06
27230 H 116.50300023147491 92.95243304094757 23.963771947036463 H 0.0 **** 0.06
27231 C 18.72331194129949 97.00892234646642 119.82582231315862 C 0.0 **** -0.24
27232 H 17.84185877760362 96.36804129016343 119.80838915899517 H 0.0 **** 0.06
27233 H 18.993530673711195 97.22512607291435 120.86039953420584 H 0.0 **** 0.06
27234 H 18.506552679622583 97.93993320061833 119.30417183857898 H 0.0 **** 0.06
27235 H 19.551516762922912 96.49935452942367 119.33219836103315 H 0.0 **** 0.06
27236 C 92.96569162258169 24.150483641997795 37.489807431626105 C 0.0 **** -0.24
27237 H 94.03141849182799 24.336001197886418 37.61837075744799 H 0.0 **** 0.06
27238 H 92.686303031688 23.244728269887446 38.02735864952854 H 0.0 **** 0.06
27239 H 92.74379706176404 24.026977095707963 36.429369730933814 H 0.0 **** 0.06
27240 H 92.39955996340967 24.995517256238344 37.882011819146555 H 0.0 **** 0.06
27241 C 45.61111287814482 72.60346675375135 77.94262624879303 C 0.0 **** -0.24
27242 H 46.10301623202388 72.02144042588591 78.72104290632919 H 0.0 **** 0.06
27243 H 45.079976914227174 73.44156995580215 78.3947974426751 H 0.0 **** 0.06
27244 H 44.902383318973186 71.97041064999735 77.4082878383372 H 0.0 **** 0.06
27245 H 46.35838900126819 72.98115417711685 77.24413445721399 H 0.0 **** 0.06
27246 C 122.06054838185011 82.09668230881664 6.31147243906122 C 0.0 **** -0.24
27247 H 122.58862173442691 82.94585561371724 6.743611633839151 H 0.0 **** 0.06
27248 H 121.68137533959886 81.45969295174032 7.110355078759497 H 0.0 **** 0.06
27249 H 122.74504613501637 81.52499196960187 5.683739865310429 H 0.0 **** 0.06
27250 H 121.22859335175359 82.45614757259517 5.705750811496699 H 0.0 **** 0.06
27251 C 46.094290287137085 66.0495977635261 54.563901869886706 C 0.0 **** -0.24
27252 H 46.65409778559416 65.57865630946074 55.372261857285736 H 0.0 **** 0.06
27253 H 45.807177930074005 65.29411156346322 53.831875041046686 H 0.0 **** 0.06
27254 H 46.717272899241095 66.80363099083965 54.082784744093885 H 0.0 **** 0.06
27255 H 45.200279684213285 66.5223094336219 54.969032438695336 H 0.0 **** 0.06
27256 C 55.72676807893316 88.443155505937 89.20268962914611 C 0.0 **** -0.24
27257 H 56.79093242841486 88.2076236581662 89.21158397593462 H 0.0 **** 0.06
27258 H 55.258656815159725 87.97595095071114 88.33581713535503 H 0.0 **** 0.06
27259 H 55.595489042145346 89.52405611787174 89.1476002537805 H 0.0 **** 0.06
27260 H 55.26326805408655 88.06711261016983 90.11406086319789 H 0.0 **** 0.06
27261 C 25.33098118456047 96.37716336257634 23.6705838922137 C 0.0 **** -0.24
27262 H 25.11848993112966 96.30882152742532 22.60308960168966 H 0.0 **** 0.06
27263 H 24.400889916815572 96.5440112919458 24.21527023692603 H 0.0 **** 0.06
27264 H 26.013304136885978 97.2074522404042 23.852140732722262 H 0.0 **** 0.06
27265 H 25.78945689971397 95.44889867348823 24.010242201249717 H 0.0 **** 0.06
27266 C 44.63333591486884 85.9405982920762 121.97875735339478 C 0.0 **** -0.24
27267 H 45.596920047598985 85.88369385295988 121.473639976124 H 0.0 **** 0.06
27268 H 44.10396929229921 84.9948474888865 121.86003682715517 H 0.0 **** 0.06
27269 H 44.041226280274486 86.74619148053208 121.54432331254537 H 0.0 **** 0.06
27270 H 44.79133828944242 86.13777715882694 123.0394735836679 H 0.0 **** 0.06
27271 C 15.454367800531799 26.092183584518317 79.60340003130676 C 0.0 **** -0.24
27272 H 15.350501582027164 25.537843984490515 80.53642927771563 H 0.0 **** 0.06
27273 H 14.743003811616518 25.708505848438612 78.87131953045974 H 0.0 **** 0.06
27274 H 16.468301326016615 25.975010729173036 79.22193913881858 H 0.0 **** 0.06
27275 H 15.254167169271312 27.148554328200063 79.78508035114027 H 0.0 **** 0.06
27276 C 64.78003119884175 69.06225348657574 85.34126359389788 C 0.0 **** -0.24
27277 H 65.15784759542177 70.01380951094234 84.96645422291368 H 0.0 **** 0.06
27278 H 64.77166811966794 69.07855005417056 86.43062650458057 H 0.0 **** 0.06
27279 H 65.4240497632905 68.25358809809194 84.99404813980144 H 0.0 **** 0.06
27280 H 63.76710013316418 68.90388432856574 84.97218236684276 H 0.0 **** 0.06
27281 C 122.5768948853828 98.11311559501328 70.4785488326915 C 0.0 **** -0.24
27282 H 123.00786864350061 98.67879100332647 69.65218020445371 H 0.0 **** 0.06
27283 H 122.5823929791379 97.05087702721133 70.23273759572601 H 0.0 **** 0.06
27284 H 121.55209792199574 98.44187911264271 70.64898597701335 H 0.0 **** 0.06
27285 H 123.16716073746304 98.28075191317149 71.37983649964747 H 0.0 **** 0.06
27286 C 121.63910364136497 73.0005930627681 37.3517770888419 C 0.0 **** -0.24
27287 H 122.53839445005842 72.84825911671854 36.75626264406137 H 0.0 **** 0.06
27288 H 121.82141702938193 72.67054108836504 38.37483852013609 H 0.0 **** 0.06
27289 H 120.8183620541475 72.42534275793648 36.924831669494225 H 0.0 **** 0.06
27290 H 121.37891378563164 74.05932881663767 37.35175737268254 H 0.0 **** 0.06
27291 C 78.20335390094834 72.32267364124192 57.06752091510188 C 0.0 **** -0.24
27292 H 78.73934342134706 71.73971004720218 57.81583418880402 H 0.0 **** 0.06
27293 H 78.50736212064808 72.00245293496397 56.07050091463742 H 0.0 **** 0.06
27294 H 78.43574444663795 73.38003962417221 57.197116368925464 H 0.0 **** 0.06
27295 H 77.13025716508909 72.16915937569763 57.1876582310604 H 0.0 **** 0.06
27296 C 66.54539828132971 43.705031076135356 47.48875720766637 C 0.0 **** -0.24
27297 H 66.29207145379792 42.82242084905647 46.90065442173217 H 0.0 **** 0.06
27298 H 65.77103510116572 44.461242361012125 47.35992287071129 H 0.0 **** 0.06
27299 H 67.50260144839598 44.103539193835275 47.151459793012435 H 0.0 **** 0.06
27300 H 66.61551754858391 43.43053928642422 48.541206096787946 H 0.0 **** 0.06
27301 C 28.560750116069016 82.56577796353088 0.09537771082773361 C 0.0 **** -0.24
27302 H 28.888611798321563 83.10248416915877 0.9855935786389693 H 0.0 **** 0.06
27303 H 27.656873401622875 81.99956425410855 0.32548026414173137 H 0.0 **** 0.06
27304 H 29.346141371282158 81.88186529086673 -0.22680884535031964 H 0.0 **** 0.06
27305 H 28.349269525380862 83.27923407726456 -0.7015008867087431 H 0.0 **** 0.06
27306 C 108.87406103729569 111.75207256205596 85.68220604523322 C 0.0 **** -0.24
27307 H 108.0316321383506 111.17540152706627 85.30167597078335 H 0.0 **** 0.06
27308 H 108.60552052998554 112.80778446719404 85.71751166059016 H 0.0 **** 0.06
27309 H 109.73319646975287 111.61741061738894 85.02564869461352 H 0.0 **** 0.06
27310 H 109.12586177014708 111.40727450121204 86.68618410149395 H 0.0 **** 0.06
27311 C 88.12538730489717 81.04542357688584 14.022265162962643 C 0.0 **** -0.24
27312 H 87.17533462234499 81.23337484286907 14.522322504145823 H 0.0 **** 0.06
27313 H 88.80618190645399 81.87491697642054 14.213222054236283 H 0.0 **** 0.06
27314 H 87.95807392859746 80.95134467465519 12.949791636725319 H 0.0 **** 0.06
27315 H 88.56080159574063 80.12250922073781 14.40529207278237 H 0.0 **** 0.06
27316 C 103.52497784909224 110.4883560163521 57.22192784430405 C 0.0 **** -0.24
27317 H 103.82616123778587 111.5269467413895 57.08863887911025 H 0.0 **** 0.06
27318 H 104.29186830452659 109.95774457918401 57.785421953170385 H 0.0 **** 0.06
27319 H 103.39883039706069 110.01875793689442 56.247213268507494 H 0.0 **** 0.06
27320 H 102.5815111075566 110.45151920320131 57.76823800188788 H 0.0 **** 0.06
27321 C 57.99896985988144 95.16139709202182 74.16269059326385 C 0.0 **** -0.24
27322 H 57.436489244989815 96.0907016230498 74.2499588465543 H 0.0 **** 0.06
27323 H 57.65180740723514 94.45429873772486 74.91589127189164 H 0.0 **** 0.06
27324 H 59.05975077954313 95.36358581873904 74.31376254988172 H 0.0 **** 0.06
27325 H 57.84740779912835 94.7385676748167 73.16961036130456 H 0.0 **** 0.06
27326 C 94.49535039947173 11.468522857011521 61.15133561092836 C 0.0 **** -0.24
27327 H 94.76694302250124 12.519142502977957 61.25490658297438 H 0.0 **** 0.06
27328 H 94.73443980362035 11.128902750391603 60.14284433666561 H 0.0 **** 0.06
27329 H 93.42573173385793 11.350796004969027 61.330465549679026 H 0.0 **** 0.06
27330 H 95.05294732085724 10.876260434367452 61.87669621803324 H 0.0 **** 0.06
27331 C 57.09114146254319 6.63117818332131 81.80398734724926 C 0.0 **** -0.24
27332 H 57.915167017647946 6.2010315763526656 81.23364448652094 H 0.0 **** 0.06
27333 H 56.62258104074908 7.425717265806583 81.22246696324657 H 0.0 **** 0.06
27334 H 57.471624499473364 7.0410440340026845 82.7395095352268 H 0.0 **** 0.06
27335 H 56.35615672395858 5.855129080985389 82.01896266089324 H 0.0 **** 0.06
27336 C 41.395028783261154 61.09863176450645 83.41670459250537 C 0.0 **** -0.24
27337 H 40.88695576024864 60.338613553519025 84.01029557301129 H 0.0 **** 0.06
27338 H 40.92056565955207 61.1714550122328 82.43832398016232 H 0.0 **** 0.06
27339 H 42.44240530295164 60.822700264660824 83.29345941040475 H 0.0 **** 0.06
27340 H 41.33072050303028 62.060495836674704 83.9261966192231 H 0.0 **** 0.06
27341 C 61.64880623902661 82.37224524710905 104.2284400288496 C 0.0 **** -0.24
27342 H 62.55283408554675 82.44596974717984 103.62369917755811 H 0.0 **** 0.06
27343 H 60.792506595086536 82.18503033065983 103.58005152064521 H 0.0 **** 0.06
27344 H 61.497329066317434 83.30508779832354 104.77110525106357 H 0.0 **** 0.06
27345 H 61.75347555926089 81.55250518475168 104.93895440142458 H 0.0 **** 0.06
27346 C 46.27280847745126 75.53540655153682 60.825208033297116 C 0.0 **** -0.24
27347 H 45.43545867935879 75.18394433325241 61.429562941716256 H 0.0 **** 0.06
27348 H 45.89865214292949 75.92693177957185 59.87870382260053 H 0.0 **** 0.06
27349 H 46.953275731804474 74.70613556235963 60.63154317173837 H 0.0 **** 0.06
27350 H 46.80166573799618 76.32226312251984 61.36186601865589 H 0.0 **** 0.06
27351 C 36.279820285045105 37.704968260886076 105.93357968530466 C 0.0 **** -0.24
27352 H 36.88979984921792 37.37816494310468 105.09202184663292 H 0.0 **** 0.06
27353 H 35.73995427877401 36.85137633784548 106.34420443596963 H 0.0 **** 0.06
27354 H 35.56743032666367 38.45789243805805 105.59460781893267 H 0.0 **** 0.06
27355 H 36.92240130210422 38.133131696413244 106.70283051004333 H 0.0 **** 0.06
27356 C 75.5928229930006 69.75671751387472 3.256485608663155 C 0.0 **** -0.24
27357 H 75.5711428431099 70.52214667248313 2.480387460533592 H 0.0 **** 0.06
27358 H 75.04125537255356 68.87973800046592 2.9165690533156976 H 0.0 **** 0.06
27359 H 75.13344802342124 70.14639710545953 4.164412661081229 H 0.0 **** 0.06
27360 H 76.62705408064687 69.47902982341819 3.463083785742242 H 0.0 **** 0.06
27361 C 90.44526701914191 47.18029975432912 66.3251797019924 C 0.0 **** -0.24
27362 H 90.61131418250017 46.13262579044909 66.07296992221129 H 0.0 **** 0.06
27363 H 89.376494733203 47.3615517809456 66.43609676695593 H 0.0 **** 0.06
27364 H 90.84128168410334 47.81163300006503 65.52966612237063 H 0.0 **** 0.06
27365 H 90.95292194566659 47.412815418192544 67.26076615706128 H 0.0 **** 0.06
27366 C 37.8045194513939 96.90281407512211 89.05252359253637 C 0.0 **** -0.24
27367 H 38.33665460102043 96.22679415832695 88.38345231948333 H 0.0 **** 0.06
27368 H 38.41660430349009 97.78473022051963 89.24185183850418 H 0.0 **** 0.06
27369 H 37.59929117258616 96.39337288118281 89.99478376392344 H 0.0 **** 0.06
27370 H 36.864777685691365 97.2051851996892 88.59025067146919 H 0.0 **** 0.06
27371 C 28.500571338282114 92.24032961493671 115.90698817975505 C 0.0 **** -0.24
27372 H 29.198162518857487 92.55850035056315 115.13195716024481 H 0.0 **** 0.06
27373 H 27.49810557750149 92.59214524787924 115.65953638543068 H 0.0 **** 0.06
27374 H 28.806224081155136 92.66096722088602 116.8655243515971 H 0.0 **** 0.06
27375 H 28.499171255795147 91.15245963522938 115.97110562461275 H 0.0 **** 0.06
27376 C 109.03957128708777 88.46508099985525 120.88531299526872 C 0.0 **** -0.24
27377 H 108.51915149336884 88.18526702457922 121.80190154608952 H 0.0 **** 0.06
27378 H 108.53376962512965 88.01704141883994 120.02996198710763 H 0.0 **** 0.06
27379 H 110.06763789458284 88.10793224434471 120.9287163261292 H 0.0 **** 0.06
27380 H 109.03573300501625 89.55048862866218 120.78347637171395 H 0.0 **** 0.06
27381 C 7.586569049611228 25.518167693667266 106.70179644210194 C 0.0 **** -0.24
27382 H 6.733682538898535 25.20674728727758 107.30496894290249 H 0.0 **** 0.06
27383 H 7.246400535320333 25.785909418340793 105.70150054901089 H 0.0 **** 0.06
27384 H 8.302260004014585 24.698365817573347 106.63558841713854 H 0.0 **** 0.06
27385 H 8.064551958242618 26.37995634695349 107.16752681736651 H 0.0 **** 0.06
27386 C 119.39995297071657 119.51790979592491 68.8683491201628 C 0.0 **** -0.24
27387 H 120.06608845777248 120.3793207196447 68.92140464853566 H 0.0 **** 0.06
27388 H 118.638770193947 119.69261770306532 68.10858797075747 H 0.0 **** 0.06
27389 H 118.92157182900962 119.37000488049424 69.83651581377922 H 0.0 **** 0.06
27390 H 119.97664307867586 118.6299290077554 68.60840720571696 H 0.0 **** 0.06
27391 C 96.25299102100178 11.694754082282444 77.87459136603536 C 0.0 **** -0.24
27392 H 97.27266724419167 12.020213264117313 77.67074632536256 H 0.0 **** 0.06
27393 H 96.27038332481504 10.692042209960984 78.30313145647432 H 0.0 **** 0.06
27394 H 95.68281960978004 11.683222914855595 76.94496789552966 H 0.0 **** 0.06
27395 H 95.78609390522024 12.383537940195886 78.57951978677482 H 0.0 **** 0.06
27396 C 57.25419943179143 36.98654561841056 113.86467685348595 C 0.0 **** -0.24
27397 H 57.30404665489265 36.57871622212687 112.85462605395526 H 0.0 **** 0.06
27398 H 58.25556146224422 37.01413075081146 114.2956494001698 H 0.0 **** 0.06
27399 H 56.611486432926974 36.35588999887145 114.47900382295393 H 0.0 **** 0.06
27400 H 56.84526685883444 37.996202611727 113.82891339238495 H 0.0 **** 0.06
27401 C 7.4094353493860865 32.06431685942607 78.00466704497035 C 0.0 **** -0.24
27402 H 6.673219106295477 32.827148677193534 78.2596443713336 H 0.0 **** 0.06
27403 H 8.405652906427463 32.50727219900398 78.00522047880006 H 0.0 **** 0.06
27404 H 7.189037019816226 31.66475644769173 77.01448715476175 H 0.0 **** 0.06
27405 H 7.367394179111699 31.260094795276757 78.7391236693708 H 0.0 **** 0.06
27406 C 56.47072672462812 64.79845384749558 98.1896244891357 C 0.0 **** -0.24
27407 H 56.777284495851035 63.95656772429422 98.80988748393949 H 0.0 **** 0.06
27408 H 56.998056008810636 65.69733286062998 98.51081218687747 H 0.0 **** 0.06
27409 H 55.39601659044479 64.95268562951605 98.29149142796925 H 0.0 **** 0.06
27410 H 56.71047531832315 64.58916500061702 97.1473549021552 H 0.0 **** 0.06
27411 C 46.67218275770003 57.102703616745096 102.51307110031286 C 0.0 **** -0.24
27412 H 46.95699222009692 56.19097272340762 103.0394450660337 H 0.0 **** 0.06
27413 H 45.8033480366889 56.90214048735249 101.88554912358944 H 0.0 **** 0.06
27414 H 47.50266893023107 57.435400256519934 101.89045581862314 H 0.0 **** 0.06
27415 H 46.4275499595759 57.87825408442878 103.23796648767751 H 0.0 **** 0.06
27416 C 15.13217660091388 81.28027192033295 101.17021247689647 C 0.0 **** -0.24
27417 H 15.657634726508206 81.00212421869242 100.25561155450828 H 0.0 **** 0.06
27418 H 15.625202465198697 80.81800275990861 102.02593492086638 H 0.0 **** 0.06
27419 H 14.099744107916763 80.93431713074378 101.11494412333931 H 0.0 **** 0.06
27420 H 15.147192313053267 82.36370280872708 101.28230656543235 H 0.0 **** 0.06
27421 C 31.657014252033882 6.821728795013783 114.65386993779501 C 0.0 **** -0.24
27422 H 31.749669273006127 7.514560808500107 115.4901437979022 H 0.0 **** 0.06
27423 H 32.16707707533339 7.232009292131593 113.7825531550023 H 0.0 **** 0.06
27424 H 30.602703516294 6.672238553697852 114.42105956365917 H 0.0 **** 0.06
27425 H 32.10828554965745 5.86629078242332 114.92298811878959 H 0.0 **** 0.06
27426 C 88.18560411150384 23.71523462413819 50.98420646687356 C 0.0 **** -0.24
27427 H 87.98036296306276 23.02707152715908 51.804155091370205 H 0.0 **** 0.06
27428 H 89.08696042418507 23.397615115742724 50.460161844720034 H 0.0 **** 0.06
27429 H 88.32913092945915 24.720467603305224 51.38057983247651 H 0.0 **** 0.06
27430 H 87.34306738080801 23.715033630326644 50.29168930386936 H 0.0 **** 0.06
27431 C 48.1363046798799 6.548028048314535 102.87925479185361 C 0.0 **** -0.24
27432 H 47.641663001246705 6.1573890145974985 101.99067850712265 H 0.0 **** 0.06
27433 H 47.63624261654695 6.16919767488983 103.76991047165092 H 0.0 **** 0.06
27434 H 48.08930007428492 7.637534521811688 102.87116733288286 H 0.0 **** 0.06
27435 H 49.17832384928256 6.229637353874978 102.88378193455497 H 0.0 **** 0.06
27436 C 109.14409254412575 117.72976796822469 98.31830598641665 C 0.0 **** -0.24
27437 H 109.49919054359381 118.7497600016667 98.1702897458996 H 0.0 **** 0.06
27438 H 108.50394719336848 117.44343780594559 97.48477733646627 H 0.0 **** 0.06
27439 H 108.5782762153913 117.67410935600643 99.2479027220123 H 0.0 **** 0.06
27440 H 109.99712806949046 117.0532136963776 98.37134224491709 H 0.0 **** 0.06
27441 C 29.512670733985367 51.60495943450158 8.852022101146538 C 0.0 **** -0.24
27442 H 28.7167049604613 50.98632131080302 8.436898606002952 H 0.0 **** 0.06
27443 H 29.666375854743066 52.47524737024901 8.213278940798165 H 0.0 **** 0.06
27444 H 30.434335944223804 51.024621672361974 8.903339692170785 H 0.0 **** 0.06
27445 H 29.233196722424793 51.933016900554804 9.853307133441866 H 0.0 **** 0.06
27446 C 101.58443946466667 83.20832444566685 29.621977954369285 C 0.0 **** -0.24
27447 H 101.47129512481186 82.3931054108115 28.9073057114583 H 0.0 **** 0.06
27448 H 100.59976903041337 83.54858049445053 29.943824397015902 H 0.0 **** 0.06
27449 H 102.11943623564983 84.03273762102401 29.15092967480458 H 0.0 **** 0.06
27450 H 102.14737366717043 82.8565852588419 30.48671651204223 H 0.0 **** 0.06
27451 C 17.65519239041447 95.08231678700082 106.80449597896381 C 0.0 **** -0.24
27452 H 18.072599052293413 95.0019525324497 105.8009346311988 H 0.0 **** 0.06
27453 H 17.880969199576327 96.0670190467807 107.21383010264114 H 0.0 **** 0.06
27454 H 18.09127258187442 94.3132893592583 107.44205853156825 H 0.0 **** 0.06
27455 H 16.5741508044577 94.94647315483564 106.75880367317592 H 0.0 **** 0.06
27456 C 36.04902932684465 20.90210048005224 49.15123688844658 C 0.0 **** -0.24
27457 H 35.72423420121052 21.831280639719864 48.683660742176315 H 0.0 **** 0.06
27458 H 36.010633775233515 21.00842244161265 50.23627083314312 H 0.0 **** 0.06
27459 H 37.070196600677576 20.67765402078288 48.84421037959305 H 0.0 **** 0.06
27460 H 35.390263154420325 20.089866690347378 48.84280282669919 H 0.0 **** 0.06
27461 C 93.12498884798077 45.524177674316576 21.703744286678756 C 0.0 **** -0.24
27462 H 93.02448013238057 46.19611741105933 22.555566490841784 H 0.0 **** 0.06
27463 H 92.63147538279136 44.578411718754694 21.927318303914205 H 0.0 **** 0.06
27464 H 94.18209065921044 45.34436262303629 21.505720329214512 H 0.0 **** 0.06
27465 H 92.66359197144706 45.97810403388954 20.826667370457002 H 0.0 **** 0.06
27466 C 8.177360325411826 47.69953514668893 66.95766033271778 C 0.0 **** -0.24
27467 H 8.646892057647193 48.521379969006034 66.41776855752224 H 0.0 **** 0.06
27468 H 8.016540337284397 47.99159183029212 67.99614482370603 H 0.0 **** 0.06
27469 H 8.826331515091852 46.82397333330381 66.92284533445292 H 0.0 **** 0.06
27470 H 7.219298438320777 47.46051389879621 66.49450866019725 H 0.0 **** 0.06
27471 C 12.967165223156968 65.46881698375688 25.926305005234056 C 0.0 **** -0.24
27472 H 13.395597861684934 65.85191397950288 26.85197570483527 H 0.0 **** 0.06
27473 H 13.71051276967654 64.86531173254664 25.404298270372436 H 0.0 **** 0.06
27474 H 12.665492467900464 66.30348848946892 25.292647987019677 H 0.0 **** 0.06
27475 H 12.096290823306049 64.85448773816614 26.155111672234327 H 0.0 **** 0.06
27476 C 23.58910272579476 106.65133859326141 14.434977456941187 C 0.0 **** -0.24
27477 H 23.798966787618525 105.5959484739173 14.263117446821084 H 0.0 **** 0.06
27478 H 24.319060935706545 107.25864776221846 13.899471404272163 H 0.0 **** 0.06
27479 H 23.6500957197658 106.86478059632543 15.50135515858005 H 0.0 **** 0.06
27480 H 22.586658643436323 106.88553819553192 14.073695492665724 H 0.0 **** 0.06
27481 C 56.38934991294591 3.7824606298522756 43.73059292557335 C 0.0 **** -0.24
27482 H 55.75851156052689 4.183452271618339 44.52468918823011 H 0.0 **** 0.06
27483 H 57.319952506749296 4.350243967752078 43.684645599761524 H 0.0 **** 0.06
27484 H 55.867513037059446 3.8620232595460884 42.77745068142107 H 0.0 **** 0.06
27485 H 56.61221806775453 2.7355788191973467 43.93738849022836 H 0.0 **** 0.06
27486 C 105.54680303049426 7.150218217821848 92.34751181622678 C 0.0 **** -0.24
27487 H 104.51855810732246 7.069275297549694 91.99565428087413 H 0.0 **** 0.06
27488 H 106.2301381498691 6.935715578694069 91.5248539579253 H 0.0 **** 0.06
27489 H 105.71279576735716 6.4343759170979204 93.1531453510965 H 0.0 **** 0.06
27490 H 105.72669639983718 8.15966017684492 92.71559382437087 H 0.0 **** 0.06
27491 C 7.337986439661364 72.82452441601512 13.547753499160677 C 0.0 **** -0.24
27492 H 6.75646845737538 72.92736008719044 12.631811488402619 H 0.0 **** 0.06
27493 H 7.802199806983321 73.78113816392298 13.792032718554566 H 0.0 **** 0.06
27494 H 8.112716844034182 72.07101970174637 13.403994654797941 H 0.0 **** 0.06
27495 H 6.682039563389413 72.52025206763702 14.363047392190126 H 0.0 **** 0.06
27496 C 2.024249161907079 17.91655162242671 114.16770564107311 C 0.0 **** -0.24
27497 H 1.4938308639149227 18.45125693188365 113.37878113470957 H 0.0 **** 0.06
27498 H 1.6191158754849937 16.90760569743543 114.25831685981107 H 0.0 **** 0.06
27499 H 1.8984231998670396 18.44527639070992 115.1119079546043 H 0.0 **** 0.06
27500 H 3.0841240831770733 17.862234237887264 113.91886451113696 H 0.0 **** 0.06
27501 C 22.467002090892784 3.6785658563906907 53.10443533837616 C 0.0 **** -0.24
27502 H 22.282386783646544 3.475595894842783 52.049055042897066 H 0.0 **** 0.06
27503 H 23.504587268966823 3.988241661837961 53.237661241908484 H 0.0 **** 0.06
27504 H 22.27825711064329 2.7763519430755252 53.6857988116887 H 0.0 **** 0.06
27505 H 21.804066133787074 4.474363067373815 53.44253264445098 H 0.0 **** 0.06
27506 C 6.836118359846267 0.0748619768552885 110.17367800495441 C 0.0 **** -0.24
27507 H 5.9055583074985805 -0.21841899775071738 110.65883297514208 H 0.0 **** 0.06
27508 H 7.32121327908348 0.8562938084809275 110.75853639460746 H 0.0 **** 0.06
27509 H 6.621062373366783 0.44944111069142423 109.17282959842592 H 0.0 **** 0.06
27510 H 7.496790295038636 -0.7896681784518762 110.10285866457224 H 0.0 **** 0.06
27511 C 48.33664223671286 14.837743434172666 21.237020729350604 C 0.0 **** -0.24
27512 H 47.98655373060933 14.80527819577776 22.268445539585684 H 0.0 **** 0.06
27513 H 47.5692519101957 15.28992205426168 20.60759099445562 H 0.0 **** 0.06
27514 H 48.53992230442384 13.824097332848368 20.890459090969728 H 0.0 **** 0.06
27515 H 49.248604368131964 15.430803149004788 21.182072748081666 H 0.0 **** 0.06
27516 C 115.51975152791232 115.49776010363496 82.84220865655561 C 0.0 **** -0.24
27517 H 116.43524604630448 115.07072756955567 82.43041108499222 H 0.0 **** 0.06
27518 H 114.97275398737017 114.72801154611031 83.38695079557894 H 0.0 **** 0.06
27519 H 114.90040967808903 115.87804059696795 82.02945679691774 H 0.0 **** 0.06
27520 H 115.77295322796365 116.3130643778081 83.51936737376971 H 0.0 **** 0.06
27521 C 4.106689345960348 106.2201622945665 120.0439380553009 C 0.0 **** -0.24
27522 H 4.111986241580013 106.9430240047561 120.85973215833822 H 0.0 **** 0.06
27523 H 3.6120205239841567 105.30592919173696 120.37139599100307 H 0.0 **** 0.06
27524 H 5.133316880388364 105.99420933142815 119.75257506211193 H 0.0 **** 0.06
27525 H 3.571267604722209 106.63869339883533 119.19247441406424 H 0.0 **** 0.06
27526 C 104.24848974863127 101.96903757946507 38.07734019914386 C 0.0 **** -0.24
27527 H 104.1857810824956 102.69160351473326 38.891485925698476 H 0.0 **** 0.06
27528 H 104.98239535654221 101.20322120884032 38.32759397622834 H 0.0 **** 0.06
27529 H 104.55141755312698 102.47769535319063 37.16243686400543 H 0.0 **** 0.06
27530 H 103.27401639141374 101.50446450487192 37.9301206088507 H 0.0 **** 0.06
27531 C 80.09965664844677 103.19203968057315 74.55947853891422 C 0.0 **** -0.24
27532 H 80.62070974988788 102.24229785079501 74.44383173466647 H 0.0 **** 0.06
27533 H 79.48079928164256 103.3761210254288 73.68143199554308 H 0.0 **** 0.06
27534 H 80.82779519759455 103.99529682320988 74.66690889297203 H 0.0 **** 0.06
27535 H 79.46762040182111 103.15336483099341 75.44671163716168 H 0.0 **** 0.06
27536 C 25.25698206600196 103.89837060982728 65.54695056298857 C 0.0 **** -0.24
27537 H 25.298788916593885 103.9138889934674 66.63623634736857 H 0.0 **** 0.06
27538 H 25.06874488730618 102.88024847207748 65.2058446841327 H 0.0 **** 0.06
27539 H 26.206528298714005 104.2477117373256 65.14264275419791 H 0.0 **** 0.06
27540 H 24.453597480752585 104.55130204072373 65.20549061344943 H 0.0 **** 0.06
27541 C 48.79475954288543 95.82432172891697 68.92980275461906 C 0.0 **** -0.24
27542 H 49.808298212553495 95.47921778687834 68.72340796079675 H 0.0 **** 0.06
27543 H 48.68850233443803 96.02240479146701 69.99593435197295 H 0.0 **** 0.06
27544 H 48.08208423955787 95.05591325898342 68.62933396363366 H 0.0 **** 0.06
27545 H 48.60262668255476 96.73858446994564 68.36894654162913 H 0.0 **** 0.06
27546 C 41.743706803743066 106.5690026675218 4.6650391439310965 C 0.0 **** -0.24
27547 H 41.30598968990469 107.00995435923048 3.7699400350126666 H 0.0 **** 0.06
27548 H 41.79958060208375 107.3226147596207 5.451348326782011 H 0.0 **** 0.06
27549 H 42.74629178342565 106.20575870279009 4.437367544264816 H 0.0 **** 0.06
27550 H 41.12461309580803 105.73811982732158 5.001194962863906 H 0.0 **** 0.06
27551 C 21.394513468487446 85.42937780899459 95.17998931377821 C 0.0 **** -0.24
27552 H 20.727292427411143 84.64456290280543 94.82376779637184 H 0.0 **** 0.06
27553 H 22.18597840281791 84.98565757789382 95.78433008459939 H 0.0 **** 0.06
27554 H 20.82969088359951 86.13908489991223 95.7842139448334 H 0.0 **** 0.06
27555 H 21.834681247003573 85.94598938374818 94.32668692111926 H 0.0 **** 0.06
27556 C 57.41040595074702 109.54712537460833 35.2027605063989 C 0.0 **** -0.24
27557 H 56.84616692350528 109.80227608377132 34.305526653501005 H 0.0 **** 0.06
27558 H 58.30627453442307 108.99326281024699 34.92219880678246 H 0.0 **** 0.06
27559 H 56.79170813255658 108.93170949345134 35.85657736307596 H 0.0 **** 0.06
27560 H 57.693924604923694 110.46032510817278 35.72485770200561 H 0.0 **** 0.06
27561 C 19.774730514118236 98.25108756902455 43.89335951136579 C 0.0 **** -0.24
27562 H 20.161579940267025 98.63919649444176 42.950045552472744 H 0.0 **** 0.06
27563 H 20.59576613563943 98.13044273732464 44.599306677541875 H 0.0 **** 0.06
27564 H 19.297801880494237 97.28598243028489 43.72048870393556 H 0.0 **** 0.06
27565 H 19.044225781025744 98.9503706993757 44.29984205008168 H 0.0 **** 0.06
27566 C 25.922669480523012 34.546991656499756 112.59616901319734 C 0.0 **** -0.24
27567 H 26.244094675610626 35.170723479299795 111.7611380727777 H 0.0 **** 0.06
27568 H 26.799168855469105 34.166736841302296 113.1223793719227 H 0.0 **** 0.06
27569 H 25.333270652914365 33.71104666501398 112.21889305814162 H 0.0 **** 0.06
27570 H 25.316609966008883 35.140788071029306 113.28048971093469 H 0.0 **** 0.06
27571 C 95.29341095687224 4.156356085353991 90.7203379227503 C 0.0 **** -0.24
27572 H 94.97759251798459 5.1334016662468684 90.35618450392354 H 0.0 **** 0.06
27573 H 96.37667524693103 4.148860844663318 90.84711138655277 H 0.0 **** 0.06
27574 H 95.00630764949406 3.3901864833659374 89.99993527220752 H 0.0 **** 0.06
27575 H 94.81339009821411 3.953139110434279 91.67718792126155 H 0.0 **** 0.06
27576 C 93.15107060850744 81.71149638852592 63.93465958101103 C 0.0 **** -0.24
27577 H 92.79774737825016 81.34123488734076 64.89708685103847 H 0.0 **** 0.06
27578 H 93.58256899115906 82.70451313884928 64.06453670094885 H 0.0 **** 0.06
27579 H 92.31484769921389 81.76664451274348 63.23772195426446 H 0.0 **** 0.06
27580 H 93.90875059385158 81.03440088275727 63.5415758920401 H 0.0 **** 0.06
27581 C 6.855571307746114 95.74241425974992 70.66671979609882 C 0.0 **** -0.24
27582 H 7.798851581955017 95.19758146170676 70.68547113394385 H 0.0 **** 0.06
27583 H 6.314273197235689 95.50001809280326 69.75251437545822 H 0.0 **** 0.06
27584 H 7.054470319320217 96.81331136902509 70.69868313036855 H 0.0 **** 0.06
27585 H 6.255339631777112 95.45782398947603 71.5310637419297 H 0.0 **** 0.06
27586 C 112.78197053848862 29.964685149547456 65.02710809703626 C 0.0 **** -0.24
27587 H 113.5623256758547 29.446345529971175 65.58330047833476 H 0.0 **** 0.06
27588 H 113.1893321900724 30.880359725649065 64.59694329215444 H 0.0 **** 0.06
27589 H 111.96015754114023 30.213406194619168 65.69918652565099 H 0.0 **** 0.06
27590 H 112.41575650204356 29.319504672536695 64.22793564174259 H 0.0 **** 0.06
27591 C 50.11954584644306 113.636915818016 109.68940140448848 C 0.0 **** -0.24
27592 H 50.36509539610242 112.73742106439502 110.2526790057637 H 0.0 **** 0.06
27593 H 49.03730538236175 113.76523477219894 109.66332518855873 H 0.0 **** 0.06
27594 H 50.50000833413307 113.5430243455221 108.67246542074707 H 0.0 **** 0.06
27595 H 50.57696511885683 114.50254541157935 110.16965155333733 H 0.0 **** 0.06
27596 C 41.532183899240096 92.7555672997633 107.7067571452119 C 0.0 **** -0.24
27597 H 42.096794960998665 93.27985909121406 106.93460709852664 H 0.0 **** 0.06
27598 H 40.52820956028032 93.17596758561984 107.77043831879621 H 0.0 **** 0.06
27599 H 42.03610066605569 92.87241198739213 108.66631764539014 H 0.0 **** 0.06
27600 H 41.4694907992029 91.69760453382986 107.45479005938944 H 0.0 **** 0.06
27601 C 1.436699084502635 14.139458468833734 15.708086495073843 C 0.0 **** -0.24
27602 H 0.41850571328515684 14.006496557275323 16.07423200966923 H 0.0 **** 0.06
27603 H 2.141667528147309 13.797824204791802 16.466746311198733 H 0.0 **** 0.06
27604 H 1.6113104919190278 15.195613345223524 15.498215181841573 H 0.0 **** 0.06
27605 H 1.5737277021852378 13.560026969039189 14.795791393907251 H 0.0 **** 0.06
27606 C 101.88801448514891 116.73390984478385 85.64726244348145 C 0.0 **** -0.24
27607 H 102.37762051273108 115.75998342997718 85.67519910199454 H 0.0 **** 0.06
27608 H 102.38218862203232 117.40837515203066 86.34752287884808 H 0.0 **** 0.06
27609 H 100.8403799089198 116.62192892801318 85.92621438626566 H 0.0 **** 0.06
27610 H 101.95431258459078 117.14343361792749 84.63952242497152 H 0.0 **** 0.06
27611 C 82.06147928333908 27.759783894563498 68.23956665534266 C 0.0 **** -0.24
27612 H 81.14135829596759 27.249846805342656 68.52702748567913 H 0.0 **** 0.06
27613 H 82.64484300370322 27.98508882226571 69.13250764223088 H 0.0 **** 0.06
27614 H 81.81616593853013 28.68648364195343 67.72134851913282 H 0.0 **** 0.06
27615 H 82.64190193750923 27.11649456760415 67.57827284095944 H 0.0 **** 0.06
27616 C 75.55145650630527 35.41531124808728 5.726751136383712 C 0.0 **** -0.24
27617 H 75.5678569128763 35.73627085957895 4.684634468374782 H 0.0 **** 0.06
27618 H 74.52073680365942 35.380264441231134 6.080157089296279 H 0.0 **** 0.06
27619 H 76.12037381158294 36.12153360505636 6.331336285357111 H 0.0 **** 0.06
27620 H 75.9982002595248 34.4245195551606 5.808157258114591 H 0.0 **** 0.06
27621 C 8.66052392692771 9.234119279597905 96.24934999264445 C 0.0 **** -0.24
27622 H 8.1414672092246 8.405833551955084 95.76655082895883 H 0.0 **** 0.06
27623 H 9.369710575631842 8.84249701126592 96.97920852395322 H 0.0 **** 0.06
27624 H 7.935850452877304 9.873067466003334 96.75263383126514 H 0.0 **** 0.06
27625 H 9.196442684321966 9.814516413337458 95.49733572095306 H 0.0 **** 0.06
27626 C 102.6214704408577 35.0853100965183 109.7074691322587 C 0.0 **** -0.24
27627 H 102.89664351800565 34.17678075156516 110.24136540467924 H 0.0 **** 0.06
27628 H 103.4482499380276 35.79486901030947 109.74655833601466 H 0.0 **** 0.06
27629 H 101.74118823974604 35.527994808595224 110.17272237304769 H 0.0 **** 0.06
27630 H 102.39957670334084 34.842669825489565 108.6675580415912 H 0.0 **** 0.06
27631 C 15.25874561257221 119.53699533146144 55.178861217455676 C 0.0 **** -0.24
27632 H 14.348077265357759 119.74827397144789 55.73982169402427 H 0.0 **** 0.06
27633 H 15.172105938890901 118.56033881739899 54.70114599723118 H 0.0 **** 0.06
27634 H 16.111863164158645 119.53529423742684 55.85854994949449 H 0.0 **** 0.06
27635 H 15.402141027007769 120.30354054795046 54.41696795395447 H 0.0 **** 0.06
27636 C 59.153366372741345 91.36316884530751 4.768326272351516 C 0.0 **** -0.24
27637 H 59.77957858594482 90.97553757594804 3.9653995410249365 H 0.0 **** 0.06
27638 H 58.194574682016054 91.68406497676551 4.360019593456087 H 0.0 **** 0.06
27639 H 59.65021678688683 92.2111092450439 5.239518230563391 H 0.0 **** 0.06
27640 H 58.9891861293207 90.58127325372843 5.509953721390332 H 0.0 **** 0.06
27641 C 51.89286401892601 30.31325969018806 24.575024233953293 C 0.0 **** -0.24
27642 H 52.86172897159725 30.7874783717659 24.41619881429707 H 0.0 **** 0.06
27643 H 51.88600041713557 29.82004079580534 25.547472273925457 H 0.0 **** 0.06
27644 H 51.71769838721506 29.57545706391437 23.79152473807431 H 0.0 **** 0.06
27645 H 51.108253086876545 31.069659569007882 24.54395862382728 H 0.0 **** 0.06
27646 C 115.51827057144796 86.32535658998214 43.54418205159105 C 0.0 **** -0.24
27647 H 114.5264853092133 86.08519781422467 43.159353573195105 H 0.0 **** 0.06
27648 H 116.06333250962771 86.9104790250677 42.80338021794165 H 0.0 **** 0.06
27649 H 116.06134018116299 85.40210802648639 43.74859994123579 H 0.0 **** 0.06
27650 H 115.42125811710349 86.90158755807727 44.46423779777589 H 0.0 **** 0.06
27651 C 93.62667308468951 85.8203337936495 95.6320941359761 C 0.0 **** -0.24
27652 H 94.25646758710519 85.43382613966139 94.83150448803173 H 0.0 **** 0.06
27653 H 92.64529322389626 85.34940513325515 95.58187605369434 H 0.0 **** 0.06
27654 H 93.5175954217168 86.89957211123749 95.51983145015339 H 0.0 **** 0.06
27655 H 94.08741040604272 85.60153033172782 96.59522563100708 H 0.0 **** 0.06
27656 C 100.24164143307783 76.76999112299109 50.00623125670589 C 0.0 **** -0.24
27657 H 100.69332899885038 77.00384350565216 49.042252767621655 H 0.0 **** 0.06
27658 H 100.4031638107983 75.71676147865898 50.236704658757894 H 0.0 **** 0.06
27659 H 99.17161634486712 76.97331389761283 49.964827346365084 H 0.0 **** 0.06
27660 H 100.69905632179689 77.38611796426048 50.780343305108154 H 0.0 **** 0.06
27661 C 16.003976138724738 29.15391980994991 4.82885280793613 C 0.0 **** -0.24
27662 H 15.676135962773742 29.95897342050722 5.485810630910464 H 0.0 **** 0.06
27663 H 17.03827904846861 29.327850422387712 4.530420541943968 H 0.0 **** 0.06
27664 H 15.36943033668814 29.125903654403942 3.942506430029127 H 0.0 **** 0.06
27665 H 15.93345648396587 28.2029462604267 5.3568920281843475 H 0.0 **** 0.06
27666 C 45.94094531183399 34.57430084262216 62.394238909612966 C 0.0 **** -0.24
27667 H 46.17953150846692 33.94462280600886 63.25163750479675 H 0.0 **** 0.06
27668 H 46.691056683755384 34.42798764644757 61.61684034689853 H 0.0 **** 0.06
27669 H 45.935669791888046 35.62048210740414 62.702492278485806 H 0.0 **** 0.06
27670 H 44.95885000991482 34.303752437077506 62.00743862019709 H 0.0 **** 0.06
27671 C 73.39888313199441 40.411141814459114 115.85285985094836 C 0.0 **** -0.24
27672 H 74.02163746526591 39.5823401328048 116.18750573128088 H 0.0 **** 0.06
27673 H 74.0090072979969 41.31025172122469 115.76363521840972 H 0.0 **** 0.06
27674 H 72.60163597489162 40.58273179644348 116.57619793697407 H 0.0 **** 0.06
27675 H 72.96363756188296 40.169993119571586 114.88202936052443 H 0.0 **** 0.06
27676 C 114.90035074627225 121.63480737119315 102.18722636572278 C 0.0 **** -0.24
27677 H 114.6319941720949 121.17460983955492 101.2360149603063 H 0.0 **** 0.06
27678 H 115.95363273172025 121.44773184529834 102.39644859172711 H 0.0 **** 0.06
27679 H 114.2899162061198 121.20786085522461 102.98208635128466 H 0.0 **** 0.06
27680 H 114.72596214776361 122.70965299857491 102.13221129392605 H 0.0 **** 0.06
27681 C 77.21129704866252 97.35118231218866 106.26542067144857 C 0.0 **** -0.24
27682 H 77.69575915423857 96.57205980237828 105.67740989083552 H 0.0 **** 0.06
27683 H 77.76531596156613 97.50652736276422 107.19085681460342 H 0.0 **** 0.06
27684 H 76.19050969890404 97.04760420025426 106.4989686954815 H 0.0 **** 0.06
27685 H 77.19205799763495 98.27893035175802 105.69258768920349 H 0.0 **** 0.06
27686 C 94.87627883629403 66.93497136326425 119.76288649410677 C 0.0 **** -0.24
27687 H 93.85380556430107 66.65860719684258 119.50678622761367 H 0.0 **** 0.06
27688 H 95.0266752601672 66.81461374338943 120.83698622785022 H 0.0 **** 0.06
27689 H 95.05161526468643 67.97513434535824 119.48613335157629 H 0.0 **** 0.06
27690 H 95.57228107353839 66.292323909284 119.22443758989735 H 0.0 **** 0.06
27691 C 112.55465092203377 80.04554906733023 97.0277055644361 C 0.0 **** -0.24
27692 H 112.17225654578111 80.62857057191167 96.19080562512369 H 0.0 **** 0.06
27693 H 113.55901829419831 79.69045559105601 96.79401985841446 H 0.0 **** 0.06
27694 H 111.9002334818953 79.19224987443025 97.204633253993 H 0.0 **** 0.06
27695 H 112.58864628851909 80.66960298800262 97.92043627325924 H 0.0 **** 0.06
27696 C 108.97962494241844 97.95481429327981 103.79242091760068 C 0.0 **** -0.24
27697 H 109.38601872593529 97.22759468876475 104.49575647129004 H 0.0 **** 0.06
27698 H 109.79352571591829 98.5450262602159 103.37134670406255 H 0.0 **** 0.06
27699 H 108.2846409334152 98.61361535991676 104.31386655892277 H 0.0 **** 0.06
27700 H 108.45599304551703 97.43290438818383 102.99157211318041 H 0.0 **** 0.06
27701 C 13.986865654072375 89.83031528603567 19.37554764776064 C 0.0 **** -0.24
27702 H 13.024556249564682 89.32450895416869 19.454342907537665 H 0.0 **** 0.06
27703 H 13.825456603423333 90.8847804135371 19.15230669102192 H 0.0 **** 0.06
27704 H 14.572502659351727 89.37483811660266 18.576752306229196 H 0.0 **** 0.06
27705 H 14.524504944487433 89.73740800259446 20.319642669112227 H 0.0 **** 0.06
27706 C 9.504834403458773 110.88367510558746 57.375210776875974 C 0.0 **** -0.24
27707 H 9.789070261921921 111.78178193541623 57.92307772881037 H 0.0 **** 0.06
27708 H 10.306263621258068 110.60667437861409 56.6892399195124 H 0.0 **** 0.06
27709 H 8.593536642580432 111.07712156120073 56.80882308182521 H 0.0 **** 0.06
27710 H 9.329687050118565 110.06981081277618 58.07772295585295 H 0.0 **** 0.06
27711 C 102.76747151209568 4.688104685731616 104.1199923905306 C 0.0 **** -0.24
27712 H 103.73373865625331 4.184792188031054 104.13789270147731 H 0.0 **** 0.06
27713 H 102.5379600355806 5.068298949407222 105.11516619687922 H 0.0 **** 0.06
27714 H 101.99549627195529 3.9820564470433624 103.81297891194387 H 0.0 **** 0.06
27715 H 102.80307054978007 5.516731100475056 103.41318048673946 H 0.0 **** 0.06
27716 C 39.14333850315117 69.04649391736967 112.25128898195146 C 0.0 **** -0.24
27717 H 40.05062787695377 69.11657878793258 112.85130334199931 H 0.0 **** 0.06
27718 H 38.86508256792075 70.03897764386215 111.89694337213507 H 0.0 **** 0.06
27719 H 38.33682045119545 68.63688954179253 112.8588282602536 H 0.0 **** 0.06
27720 H 39.322875338623334 68.39316776293751 111.39679342749184 H 0.0 **** 0.06
27721 C 56.65799821173374 36.78019409856745 96.98239168061568 C 0.0 **** -0.24
27722 H 57.23924770718469 35.87626380307873 96.8012145426072 H 0.0 **** 0.06
27723 H 57.11420142783709 37.617553103706086 96.45414489713374 H 0.0 **** 0.06
27724 H 56.63767372261674 36.99105748099788 98.05108416011694 H 0.0 **** 0.06
27725 H 55.638826876675864 36.63425321656263 96.6210963530344 H 0.0 **** 0.06
27726 C 49.75726230761467 82.79645479826979 110.6641980417019 C 0.0 **** -0.24
27727 H 50.13719388378209 83.39609280963703 111.49158332251085 H 0.0 **** 0.06
27728 H 49.396702145714215 81.8400741070239 111.04569193316706 H 0.0 **** 0.06
27729 H 50.556219162321014 82.62366085100768 109.9436834462245 H 0.0 **** 0.06
27730 H 48.93788439498988 83.32649548053143 110.17877365763093 H 0.0 **** 0.06
27731 C 54.758190275885624 65.65414597265146 14.411677932492012 C 0.0 **** -0.24
27732 H 54.1277806258455 65.65526127289726 13.52263938331356 H 0.0 **** 0.06
27733 H 54.17704691858785 65.9958455006985 15.269147495264065 H 0.0 **** 0.06
27734 H 55.6050113868219 66.32188378451247 14.257122825670479 H 0.0 **** 0.06
27735 H 55.1219948901273 64.6437796360016 14.598126824830842 H 0.0 **** 0.06
27736 C 91.31042196486507 97.24232221776703 88.1201870036937 C 0.0 **** -0.24
27737 H 92.12051990242645 97.44751544828313 87.41999186765176 H 0.0 **** 0.06
27738 H 90.78274972078532 98.16913480528419 88.34810284310242 H 0.0 **** 0.06
27739 H 91.7206721314154 96.8216696438133 89.03812944697279 H 0.0 **** 0.06
27740 H 90.61643591291863 96.52964263165498 87.67293497444183 H 0.0 **** 0.06
27741 C 110.88934603917278 10.232760181609642 12.616177765438238 C 0.0 **** -0.24
27742 H 111.00085889629682 9.84385248846182 11.603931337668115 H 0.0 **** 0.06
27743 H 111.6556925748726 9.798813109558555 13.258594348179344 H 0.0 **** 0.06
27744 H 109.90267618226085 9.96998716632076 12.999155739072293 H 0.0 **** 0.06
27745 H 110.99641712950799 11.316704350157309 12.602654985318878 H 0.0 **** 0.06
27746 C 79.55122488192575 30.957275750216226 89.29528360155149 C 0.0 **** -0.24
27747 H 79.76535552037666 31.53303394909569 88.39480222942353 H 0.0 **** 0.06
27748 H 80.47580327023749 30.79536464208227 89.84981020283135 H 0.0 **** 0.06
27749 H 79.1213777346693 29.995324031984012 89.01659482647074 H 0.0 **** 0.06
27750 H 78.84512854005311 31.50524594044108 89.9174103027297 H 0.0 **** 0.06
27751 C 22.088646226877458 56.068618448657254 20.11856130873815 C 0.0 **** -0.24
27752 H 21.366653195388608 56.17520265973439 19.30892373547556 H 0.0 **** 0.06
27753 H 21.984409066063606 55.08086744653334 20.569480146481652 H 0.0 **** 0.06
27754 H 21.903702891396406 56.8337327717852 20.872312026404046 H 0.0 **** 0.06
27755 H 23.097888560825595 56.18354462032594 19.723576501150774 H 0.0 **** 0.06
27756 C 32.061499498036255 103.83076505124524 36.43492631130684 C 0.0 **** -0.24
27757 H 31.159646081188555 104.37513398035998 36.153597228607964 H 0.0 **** 0.06
27758 H 32.86850541760447 104.08610496657087 35.748673396228924 H 0.0 **** 0.06
27759 H 31.867275163376803 102.75985380886203 36.38753352167791 H 0.0 **** 0.06
27760 H 32.347783595293464 104.1040191472461 37.4513223128763 H 0.0 **** 0.06
27761 C 78.3433360644432 110.72850436097238 88.71231696158321 C 0.0 **** -0.24
27762 H 77.74577628162459 110.0235779683457 89.28940721144176 H 0.0 **** 0.06
27763 H 77.81050117706334 110.9940641167924 87.79879839294756 H 0.0 **** 0.06
27764 H 79.29867701020649 110.27047902315266 88.45542668136108 H 0.0 **** 0.06
27765 H 78.518689462017 111.62651378050049 89.30404523835347 H 0.0 **** 0.06
27766 C 29.996298245478442 95.13343831063196 101.13351937927575 C 0.0 **** -0.24
27767 H 29.597005254002624 95.76428154451753 100.33869794772929 H 0.0 **** 0.06
27768 H 30.709539112076072 94.4257636284027 100.71079944202216 H 0.0 **** 0.06
27769 H 29.179657788051543 94.58831766551896 101.60871310073492 H 0.0 **** 0.06
27770 H 30.497037610567816 95.75578490199919 101.87444236950637 H 0.0 **** 0.06
27771 C 22.833999039356144 57.33593135291062 63.202540383627785 C 0.0 **** -0.24
27772 H 23.30470177106966 58.236993358173436 62.81152346121305 H 0.0 **** 0.06
27773 H 23.519551474995595 56.49400631010394 63.10065677108111 H 0.0 **** 0.06
27774 H 21.92023212641334 57.13101713184864 62.64382813521123 H 0.0 **** 0.06
27775 H 22.590643931252856 57.47981601765824 64.25606813396695 H 0.0 **** 0.06
27776 C 110.46733082177704 99.37844103215346 87.58294245245355 C 0.0 **** -0.24
27777 H 111.50676662241801 99.4886124680362 87.8926691417146 H 0.0 **** 0.06
27778 H 109.92710239068458 98.78987857989964 88.32503049182293 H 0.0 **** 0.06
27779 H 110.42755059656912 98.87233099958752 86.61768115453637 H 0.0 **** 0.06
27780 H 110.00882818375081 100.36361416921781 87.4955561370248 H 0.0 **** 0.06
27781 C 76.64676932226234 92.89413853082098 100.99140813372622 C 0.0 **** -0.24
27782 H 76.18774628068388 91.92822057126665 101.2008178784842 H 0.0 **** 0.06
27783 H 77.73057060328702 92.78255156115699 100.96604597113958 H 0.0 **** 0.06
27784 H 76.37220705724363 93.6032413353754 101.77140866024342 H 0.0 **** 0.06
27785 H 76.29562305785461 93.2610891525297 100.02719309178258 H 0.0 **** 0.06
27786 C 62.23427302511337 69.15919476637168 111.34835731002428 C 0.0 **** -0.24
27787 H 61.701424627605576 70.10001280280062 111.20906568400068 H 0.0 **** 0.06
27788 H 63.224315844910876 69.36069922472265 111.7593748128404 H 0.0 **** 0.06
27789 H 62.335340415158925 68.65308105473352 110.38831073821146 H 0.0 **** 0.06
27790 H 61.677004365461926 68.52399187452144 112.03672207069681 H 0.0 **** 0.06
27791 C 45.2150336116715 56.24370717273675 97.28133993433354 C 0.0 **** -0.24
27792 H 44.33227423678174 56.509318067488294 96.69940962283425 H 0.0 **** 0.06
27793 H 45.14865294112627 56.697176059664315 98.27003992651854 H 0.0 **** 0.06
27794 H 46.1085390657436 56.60645079062189 96.77385381083701 H 0.0 **** 0.06
27795 H 45.26976278306316 55.15910257246577 97.38138881571092 H 0.0 **** 0.06
27796 C 75.86887768053066 24.006043558254532 43.296409430328 C 0.0 **** -0.24
27797 H 75.73551527668468 23.068714192577772 43.83762687701679 H 0.0 **** 0.06
27798 H 75.52730776728953 24.834756361020368 43.916968241172555 H 0.0 **** 0.06
27799 H 75.28981142473162 23.979108996671584 42.374149246499144 H 0.0 **** 0.06
27800 H 76.9247861090492 24.141079072624166 43.05990787503846 H 0.0 **** 0.06
27801 C 116.09091107821448 35.501518862039916 59.296434309400354 C 0.0 **** -0.24
27802 H 115.04211100646867 35.78510913747745 59.38453707839369 H 0.0 **** 0.06
27803 H 116.71739163248554 36.384820697083484 59.416067297157326 H 0.0 **** 0.06
27804 H 116.2665384154962 35.06103884624078 58.3150212874381 H 0.0 **** 0.06
27805 H 116.33603794743627 34.77340725178307 60.06929807455123 H 0.0 **** 0.06
27806 C 35.79455910289107 31.542314473490755 10.431818541746484 C 0.0 **** -0.24
27807 H 35.56990117819703 30.80831558828629 9.659431686116584 H 0.0 **** 0.06
27808 H 35.07314946285874 32.35749764252358 10.380499610116942 H 0.0 **** 0.06
27809 H 36.79955835872909 31.93622909631143 10.276680025398147 H 0.0 **** 0.06
27810 H 35.73834017756394 31.06757502806554 11.411892556860526 H 0.0 **** 0.06
27811 C 117.82380904775817 76.78710509026328 117.71806323147781 C 0.0 **** -0.24
27812 H 117.3555374576419 77.75504298157529 117.53975429019135 H 0.0 **** 0.06
27813 H 117.4634213859486 76.06956694605765 116.98044957002574 H 0.0 **** 0.06
27814 H 117.56896509667257 76.43885588397114 118.71848770273161 H 0.0 **** 0.06
27815 H 118.90569702144538 76.88533649887123 117.630689819622 H 0.0 **** 0.06
27816 C 113.50188491561777 42.200951867093465 55.51561925348088 C 0.0 **** -0.24
27817 H 113.61720881447668 43.24353756230829 55.21720567433263 H 0.0 **** 0.06
27818 H 112.4762261934541 41.881637328482384 55.33255231504663 H 0.0 **** 0.06
27819 H 113.73018771446688 42.10040043895282 56.57665099991016 H 0.0 **** 0.06
27820 H 114.18561559428169 41.579465642945706 54.936838296856735 H 0.0 **** 0.06
27821 C 21.863844716059162 83.65081405867824 103.25587672619017 C 0.0 **** -0.24
27822 H 21.569710623469263 84.68632466084654 103.08454645973447 H 0.0 **** 0.06
27823 H 21.118471458507713 83.15987408932878 103.8822646495747 H 0.0 **** 0.06
27824 H 22.832094638298685 83.62779382431438 103.75659353471931 H 0.0 **** 0.06
27825 H 21.936347428957532 83.13086374908889 102.30104526614755 H 0.0 **** 0.06
27826 C 99.40782255280789 63.71846470821401 95.0419841478442 C 0.0 **** -0.24
27827 H 98.50370741840356 64.1997201040617 95.41556174892781 H 0.0 **** 0.06
27828 H 99.57087348759399 64.00886058568386 94.00375064933849 H 0.0 **** 0.06
27829 H 99.29562195533964 62.63730093397435 95.10441729620749 H 0.0 **** 0.06
27830 H 100.26053207860184 64.03153912012004 95.64427892154063 H 0.0 **** 0.06
27831 C 77.30734631211413 10.404977212785525 91.60165803785566 C 0.0 **** -0.24
27832 H 77.70740856359726 10.404468675652936 92.61621219412939 H 0.0 **** 0.06
27833 H 78.0894939724528 10.706933494073382 90.9046482767551 H 0.0 **** 0.06
27834 H 76.47521001446393 11.105886279919872 91.53970837451516 H 0.0 **** 0.06
27835 H 76.96046615145434 9.403320782043465 91.34857572876211 H 0.0 **** 0.06
27836 C 6.4398890312067465 59.78450271778485 108.31502648992495 C 0.0 **** -0.24
27837 H 5.9134834911328085 59.85887559960099 107.36399076224316 H 0.0 **** 0.06
27838 H 7.171482524503233 60.58899384184613 108.38815037907949 H 0.0 **** 0.06
27839 H 6.949765257606543 58.82277473427615 108.374370116969 H 0.0 **** 0.06
27840 H 5.724475114990128 59.867694889280045 109.13271718857908 H 0.0 **** 0.06
27841 C 92.87951590227118 28.447627256393503 97.8748135742187 C 0.0 **** -0.24
27842 H 93.12565023038354 29.41771196624734 98.30761459693252 H 0.0 **** 0.06
27843 H 92.73120405246948 28.55735727195116 96.79979583625018 H 0.0 **** 0.06
27844 H 91.96550003227162 28.067383714828793 98.33099332830349 H 0.0 **** 0.06
27845 H 93.69547135749744 27.749262280891628 98.06015156543714 H 0.0 **** 0.06
27846 C 34.028895703567365 111.90326166191916 30.927339185000406 C 0.0 **** -0.24
27847 H 33.18103356688581 111.64394884510268 31.56076617137866 H 0.0 **** 0.06
27848 H 33.66694440320712 112.36635306276727 30.009322983576347 H 0.0 **** 0.06
27849 H 34.58981479563687 111.00122403377301 30.68349907421537 H 0.0 **** 0.06
27850 H 34.676926185832784 112.60288531169675 31.456394417849374 H 0.0 **** 0.06
27851 C 61.08448912173429 115.64932815061817 12.542846714456772 C 0.0 **** -0.24
27852 H 61.858230944416704 115.1320838358833 11.976079563742736 H 0.0 **** 0.06
27853 H 60.14164180332324 115.60183118777948 11.998021881183703 H 0.0 **** 0.06
27854 H 61.37157087222204 116.69102591738263 12.683835802126374 H 0.0 **** 0.06
27855 H 60.966654516490394 115.17083996590162 13.515072608785928 H 0.0 **** 0.06
27856 C 66.70970226762108 58.34839276179114 9.683580219579994 C 0.0 **** -0.24
27857 H 65.84876493598625 57.784399783336035 9.32541554870079 H 0.0 **** 0.06
27858 H 66.36901954827613 59.164299487674135 10.32082005989588 H 0.0 **** 0.06
27859 H 67.25675559404021 58.755458028467935 8.832350087893815 H 0.0 **** 0.06
27860 H 67.36367536611459 57.689553249039214 10.254113974115114 H 0.0 **** 0.06
27861 C 106.11534128353532 0.7638053720133229 56.985666210234996 C 0.0 **** -0.24
27862 H 105.36429851909352 0.013786896703493312 56.73560174110855 H 0.0 **** 0.06
27863 H 105.84901205258993 1.7139812349344794 56.52133898760948 H 0.0 **** 0.06
27864 H 107.08879986256403 0.43957707232472387 56.618861782021014 H 0.0 **** 0.06
27865 H 106.15744889686707 0.8870879645321139 58.06791964094725 H 0.0 **** 0.06
27866 C 45.35363442050692 51.84008171854873 3.5009952427800535 C 0.0 **** -0.24
27867 H 46.07145969574378 51.079110071625166 3.1939835426394882 H 0.0 **** 0.06
27868 H 45.88511145551257 52.75008695838102 3.7795661639639118 H 0.0 **** 0.06
27869 H 44.78125326798556 51.47665645621686 4.355349448295106 H 0.0 **** 0.06
27870 H 44.675863338324746 52.0542714821957 2.674595073856384 H 0.0 **** 0.06
27871 C 119.54403428753997 33.946213468879364 115.74947352097604 C 0.0 **** -0.24
27872 H 119.08545718572887 33.13871628898215 115.17953367878863 H 0.0 **** 0.06
27873 H 119.84056143406386 34.74683217750834 115.07097405196976 H 0.0 **** 0.06
27874 H 120.4230144815389 33.56809138116654 116.27152393558282 H 0.0 **** 0.06
27875 H 118.82842726537794 34.33079232332278 116.47559525736713 H 0.0 **** 0.06
27876 C 100.98742243174868 103.15071284908973 9.041684396289298 C 0.0 **** -0.24
27877 H 101.05738889856141 102.10206434728303 9.329542181275912 H 0.0 **** 0.06
27878 H 99.93843107202 103.44438797214758 8.995346335523323 H 0.0 **** 0.06
27879 H 101.44719230541415 103.28997655387698 8.06308722102392 H 0.0 **** 0.06
27880 H 101.50557949373604 103.76479678978498 9.777688646743542 H 0.0 **** 0.06
27881 C 121.19653696295077 21.916392138917573 115.05033912838985 C 0.0 **** -0.24
27882 H 121.47831657787972 22.456519648811792 114.14591129388637 H 0.0 **** 0.06
27883 H 121.34030321442077 22.56156657848871 115.91735894743923 H 0.0 **** 0.06
27884 H 121.81965172367393 21.027474035821 115.15137754137038 H 0.0 **** 0.06
27885 H 120.14946467585364 21.621760014994464 114.98606921666314 H 0.0 **** 0.06
27886 C 95.2977342382733 10.075343407921537 31.49254086626877 C 0.0 **** -0.24
27887 H 94.91399545618219 10.916074963709747 32.07049512752508 H 0.0 **** 0.06
27888 H 94.86340898752121 9.147886347945445 31.867715744601355 H 0.0 **** 0.06
27889 H 96.38304023351185 10.034207410371124 31.58799183980784 H 0.0 **** 0.06
27890 H 95.03041739875314 10.20415598450657 30.443660910324752 H 0.0 **** 0.06
27891 C 25.12602173221822 20.681957743917962 117.22303462543888 C 0.0 **** -0.24
27892 H 25.275479607444424 19.683915629078 117.63366870934198 H 0.0 **** 0.06
27893 H 24.12049706167994 21.02717592945004 117.46397379168533 H 0.0 **** 0.06
27894 H 25.250155127155693 20.650821572986104 116.1403044648888 H 0.0 **** 0.06
27895 H 25.858399755516018 21.36483836404841 117.65339332253777 H 0.0 **** 0.06
27896 C 68.09777595589253 15.394872468661418 57.15374301488879 C 0.0 **** -0.24
27897 H 68.18614104612695 14.692189580810975 56.32441523357747 H 0.0 **** 0.06
27898 H 68.80086092871446 15.117499069321525 57.94023506433504 H 0.0 **** 0.06
27899 H 67.08150736383203 15.36513710634074 57.54749308892144 H 0.0 **** 0.06
27900 H 68.32278131851291 16.400963179652962 56.80231009143472 H 0.0 **** 0.06
27901 C 106.93010961370362 118.28786053047723 113.32026321689659 C 0.0 **** -0.24
27902 H 106.79194106475254 118.89206822490787 112.42392476847485 H 0.0 **** 0.06
27903 H 106.23418870140259 118.61830702217438 114.09196807022442 H 0.0 **** 0.06
27904 H 107.9525045638571 118.40074229629278 113.67969798600731 H 0.0 **** 0.06
27905 H 106.74161486629498 117.24003592797561 113.084090557044 H 0.0 **** 0.06
27906 C 91.78070237196454 1.1346051521301632 6.039238400819613 C 0.0 **** -0.24
27907 H 91.64888835737503 2.1035872987521884 6.5196702266867845 H 0.0 **** 0.06
27908 H 91.29815151484178 1.1446424177065353 5.061695011775811 H 0.0 **** 0.06
27909 H 91.33044600302432 0.3578273807785308 6.6578082521265 H 0.0 **** 0.06
27910 H 92.84487571574022 0.9304200315065998 5.917930104001925 H 0.0 **** 0.06
27911 C 68.51211341225678 3.250554507141146 15.366290965008176 C 0.0 **** -0.24
27912 H 67.43336115778436 3.340940199060796 15.2370309321268 H 0.0 **** 0.06
27913 H 68.80751654767698 3.7358577104904924 16.29591823201082 H 0.0 **** 0.06
27914 H 69.01917999692773 3.7292831743900052 14.52815105515694 H 0.0 **** 0.06
27915 H 68.78593903335775 2.1964554136644523 15.40164231412794 H 0.0 **** 0.06
27916 C 23.95687143714033 77.29833059103896 120.62171638823698 C 0.0 **** -0.24
27917 H 22.990263923904344 77.79697553940787 120.70235345522572 H 0.0 **** 0.06
27918 H 24.672513143157524 77.96961799771373 120.14685503551013 H 0.0 **** 0.06
27919 H 23.850233299107735 76.39622285589837 120.0204078192655 H 0.0 **** 0.06
27920 H 24.312150041327705 77.03237932893478 121.61753876057551 H 0.0 **** 0.06
27921 C 8.000513651667006 92.24026793378277 67.92779010093903 C 0.0 **** -0.24
27922 H 7.030094155393158 91.74395245985386 67.94831084274338 H 0.0 **** 0.06
27923 H 8.791806258328876 91.49063176444557 67.93074875709405 H 0.0 **** 0.06
27924 H 8.099562188008917 92.87819090101755 68.8064475102864 H 0.0 **** 0.06
27925 H 8.078253390969735 92.84795305974382 67.02629609378434 H 0.0 **** 0.06
27926 C 17.733814569956735 2.7367153279030845 43.916099687943266 C 0.0 **** -0.24
27927 H 16.768766888973488 2.3752790768074163 43.563129643835 H 0.0 **** 0.06
27928 H 17.69156316244272 3.8186013670825076 44.04548127856656 H 0.0 **** 0.06
27929 H 18.50450294105329 2.4887547464572037 43.185839358685676 H 0.0 **** 0.06
27930 H 17.971908366602776 2.2658744789090974 44.870237730677076 H 0.0 **** 0.06
27931 C 84.64146982417938 22.279890097392695 116.4385418529285 C 0.0 **** -0.24
27932 H 84.87759872289422 21.22899018804094 116.27126168560727 H 0.0 **** 0.06
27933 H 84.97342028972375 22.86762340465026 115.58232715336587 H 0.0 **** 0.06
27934 H 85.14891330567366 22.628119076725483 117.3376223636823 H 0.0 **** 0.06
27935 H 83.56392462245608 22.394064849565524 116.56238316184456 H 0.0 **** 0.06
27936 C 103.85519744560932 17.834982247705994 48.97282341932572 C 0.0 **** -0.24
27937 H 103.45125672875557 17.108755493816005 48.26796124169499 H 0.0 **** 0.06
27938 H 103.3533572397101 18.792612265749327 48.83579691961779 H 0.0 **** 0.06
27939 H 104.92422306257305 17.954930438977414 48.7981644117836 H 0.0 **** 0.06
27940 H 103.69141821113621 17.481000660298715 49.99071169117684 H 0.0 **** 0.06
27941 C 100.57181321269417 24.720189464350113 60.21097211149509 C 0.0 **** -0.24
27942 H 101.11274256674028 24.79006593707723 59.26612452605588 H 0.0 **** 0.06
27943 H 101.22929963824086 24.306020582984758 60.975762214646856 H 0.0 **** 0.06
27944 H 99.7056190376224 24.072100429949245 60.08544812793989 H 0.0 **** 0.06
27945 H 100.241687297704 25.714212782084786 60.51340504130699 H 0.0 **** 0.06
27946 C 62.70969063531524 55.385249840843585 28.845610197038525 C 0.0 **** -0.24
27947 H 62.150979925061904 55.74622210525928 29.71002362989242 H 0.0 **** 0.06
27948 H 63.69219874319347 55.85879130159719 28.82620570495834 H 0.0 **** 0.06
27949 H 62.16792001925086 55.63516690256944 27.933611200632186 H 0.0 **** 0.06
27950 H 62.82748019796321 54.303960881620014 28.914624102642904 H 0.0 **** 0.06
27951 C 48.20455775610043 99.93003548243672 32.96609484259382 C 0.0 **** -0.24
27952 H 48.808615722997104 99.089091016416 33.30583661686003 H 0.0 **** 0.06
27953 H 48.64350081255543 100.8610959286853 33.325482657125676 H 0.0 **** 0.06
27954 H 47.19195351375242 99.83007707592185 33.35816390375636 H 0.0 **** 0.06
27955 H 48.17343676883189 99.93750770296586 31.876586799304384 H 0.0 **** 0.06
27956 C 82.06842593365928 86.91647197582549 76.44072810112465 C 0.0 **** -0.24
27957 H 82.82516440589237 87.33954378788343 77.10119100075141 H 0.0 **** 0.06
27958 H 82.42207259231031 85.96403989956431 76.04469229203443 H 0.0 **** 0.06
27959 H 81.87861008760194 87.60481346736242 75.61730715678232 H 0.0 **** 0.06
27960 H 81.14663131553658 86.75741261246165 77.00159083999586 H 0.0 **** 0.06
27961 C 69.30598595643926 7.850181068999731 55.00173761538227 C 0.0 **** -0.24
27962 H 69.73054740474862 8.128999016060945 55.96570400960081 H 0.0 **** 0.06
27963 H 70.10465878341836 7.766385435800469 54.26443499135695 H 0.0 **** 0.06
27964 H 68.59535401957513 8.61288548339024 54.68274016015093 H 0.0 **** 0.06
27965 H 68.79431838702175 6.89214230091525 55.093901318922775 H 0.0 **** 0.06
27966 C 15.642540739346856 115.81053497410122 112.42657860478093 C 0.0 **** -0.24
27967 H 16.549101074250956 115.43605262934805 111.95076090502269 H 0.0 **** 0.06
27968 H 15.612368655256944 116.8968515864928 112.34591288322386 H 0.0 **** 0.06
27969 H 15.63803447865675 115.52269654793633 113.47667037308972 H 0.0 **** 0.06
27970 H 14.770640502860743 115.38411277519151 111.92934899913209 H 0.0 **** 0.06
27971 C 90.22949094085834 50.21847146200497 23.062057819600398 C 0.0 **** -0.24
27972 H 89.20404664804607 50.58832155177552 23.06822686061645 H 0.0 **** 0.06
27973 H 90.23420634874702 49.160541250196246 23.32822819990804 H 0.0 **** 0.06
27974 H 90.82176840501361 50.778361742643796 23.786326726156858 H 0.0 **** 0.06
27975 H 90.65605338051176 50.3449229561449 22.067549613487984 H 0.0 **** 0.06
27976 C 5.629867148817027 8.540357973912904 65.10701412851174 C 0.0 **** -0.24
27977 H 5.96526128389317 8.445446755899127 66.13965915469251 H 0.0 **** 0.06
27978 H 6.482904011546424 8.438897002390519 64.43699260348279 H 0.0 **** 0.06
27979 H 5.168574343604547 9.518219496101167 64.96358818114518 H 0.0 **** 0.06
27980 H 4.900608705641332 7.759228122425583 64.8896538977954 H 0.0 **** 0.06
27981 C 14.702836896890574 83.44379376770456 65.15295551988504 C 0.0 **** -0.24
27982 H 14.759084000122186 82.37773311591934 64.93362230320571 H 0.0 **** 0.06
27983 H 15.455276286900528 83.9746931538439 64.56852330180322 H 0.0 **** 0.06
27984 H 14.885690136785911 83.60657558960591 66.21446238460803 H 0.0 **** 0.06
27985 H 13.712133606429404 83.81597923317875 64.89340772375607 H 0.0 **** 0.06
27986 C 95.04766271561118 67.48170317385893 101.98135479765645 C 0.0 **** -0.24
27987 H 95.55862848322866 66.922410641939 101.1981677630418 H 0.0 **** 0.06
27988 H 93.98328992746406 67.24446236882713 101.96119097862976 H 0.0 **** 0.06
27989 H 95.18623582445818 68.54996019604172 101.81474579745762 H 0.0 **** 0.06
27990 H 95.46232202065886 67.20769950876146 102.95219302402941 H 0.0 **** 0.06
27991 C 29.02960309021367 89.15898410846188 66.9735348167423 C 0.0 **** -0.24
27992 H 29.482877205172727 90.12111511612369 66.73486007812511 H 0.0 **** 0.06
27993 H 29.58335420488423 88.6896194145022 67.78736076889902 H 0.0 **** 0.06
27994 H 29.060662361673963 88.51485067593245 66.09498626908248 H 0.0 **** 0.06
27995 H 27.994452909047865 89.31015766792626 67.27752612251055 H 0.0 **** 0.06
27996 C 79.28714400569561 47.786572940121346 16.761193491355016 C 0.0 **** -0.24
27997 H 78.96259535478893 46.77915093049637 16.502195126893554 H 0.0 **** 0.06
27998 H 79.40085640174217 47.86481656677873 17.84257666761721 H 0.0 **** 0.06
27999 H 78.54430347343103 48.50747504928782 16.419987963377963 H 0.0 **** 0.06
28000 H 80.24325821111475 47.99489482579014 16.279774947023554 H 0.0 **** 0.06
28001 C 35.915818219888735 64.52026090662136 26.700389810429073 C 0.0 **** -0.24
28002 H 36.71707809988291 64.85985819148141 26.04565070022403 H 0.0 **** 0.06
28003 H 35.01841845513309 65.1102521624552 26.51185822920516 H 0.0 **** 0.06
28004 H 36.2184903583572 64.64271812329329 27.74014021926962 H 0.0 **** 0.06
28005 H 35.707090381941356 63.46883950787577 26.504798867528223 H 0.0 **** 0.06
28006 C 100.98913123606857 66.86640106713651 35.91210875268038 C 0.0 **** -0.24
28007 H 101.92316496252332 67.28020770734943 36.29274534549526 H 0.0 **** 0.06
28008 H 100.77902317929664 65.92286642878466 36.41658190757596 H 0.0 **** 0.06
28009 H 101.078422018613 66.69367971327986 34.84013508037805 H 0.0 **** 0.06
28010 H 100.17714519350986 67.56860197153188 36.101076174316034 H 0.0 **** 0.06
28011 C 55.871134473350395 1.1875616954479824 119.13389174942021 C 0.0 **** -0.24
28012 H 56.17686819198295 1.9898865557762946 119.80453604965672 H 0.0 **** 0.06
28013 H 55.35922240510075 0.41216623840824695 119.70435479211982 H 0.0 **** 0.06
28014 H 56.75153602169007 0.7629492693901767 118.65163712457289 H 0.0 **** 0.06
28015 H 55.19691127462809 1.5852447182175382 118.37503903133157 H 0.0 **** 0.06
28016 C 55.539781293468046 19.904688446059026 51.45687141623608 C 0.0 **** -0.24
28017 H 55.562898575150435 20.530268152973704 52.34878212421137 H 0.0 **** 0.06
28018 H 56.11087625987664 20.384136736111387 50.66177015765206 H 0.0 **** 0.06
28019 H 54.50707731322239 19.772149213152602 51.13306898572813 H 0.0 **** 0.06
28020 H 55.97699441415609 18.93270456808915 51.68353220151147 H 0.0 **** 0.06
28021 C 31.261626227932254 7.19026417328493 60.10456731247921 C 0.0 **** -0.24
28022 H 30.857574217327908 7.004138839897934 59.11003355204098 H 0.0 **** 0.06
28023 H 31.587342819961066 8.228569975256477 60.1756725509536 H 0.0 **** 0.06
28024 H 32.11031112320154 6.529371754198877 60.281257145402 H 0.0 **** 0.06
28025 H 30.490636287501047 6.998354436203073 60.85175696317307 H 0.0 **** 0.06
28026 C 3.3913071365178666 63.50285833397064 13.469073905591685 C 0.0 **** -0.24
28027 H 2.361584696901332 63.30769001084884 13.170324632692548 H 0.0 **** 0.06
28028 H 4.012894004803513 63.608216135114525 12.57914879507613 H 0.0 **** 0.06
28029 H 3.758603701004631 62.6734384821706 14.072171731023708 H 0.0 **** 0.06
28030 H 3.43156836074661 64.4226886491395 14.052346863879997 H 0.0 **** 0.06
28031 C 13.595484891230157 60.89015103867576 11.87539596284006 C 0.0 **** -0.24
28032 H 13.086755250751722 61.85331664974793 11.886806720098093 H 0.0 **** 0.06
28033 H 12.977817114529898 60.15944455939752 11.352506175210578 H 0.0 **** 0.06
28034 H 13.766121220744893 60.55665660773506 12.898296132172106 H 0.0 **** 0.06
28035 H 14.55173400259686 60.990904395709826 11.36159098758344 H 0.0 **** 0.06
28036 C 26.761440005808396 100.14869294871701 89.65600206267897 C 0.0 **** -0.24
28037 H 26.071138509438356 99.52454249052039 90.22312035416397 H 0.0 **** 0.06
28038 H 26.288414626720936 100.45643141211767 88.72257598142659 H 0.0 **** 0.06
28039 H 27.66641540768586 99.58372383984613 89.43586466185218 H 0.0 **** 0.06
28040 H 27.017413067401037 101.03185817659971 90.24204655617689 H 0.0 **** 0.06
28041 C 86.36067772735686 81.10452434421975 20.71117299055703 C 0.0 **** -0.24
28042 H 86.74058276565694 81.99291061758649 20.207866869023007 H 0.0 **** 0.06
28043 H 85.68884063825044 80.56697395278468 20.041102323187147 H 0.0 **** 0.06
28044 H 85.81843019007238 81.40062768416627 21.60922396640342 H 0.0 **** 0.06
28045 H 87.19372739779101 80.45805145703574 20.985787516494042 H 0.0 **** 0.06
28046 C 95.33054489807148 33.8743579900293 11.763506167853734 C 0.0 **** -0.24
28047 H 94.45869964960454 34.387960910905385 12.168493848159358 H 0.0 **** 0.06
28048 H 95.89022289933857 34.55792164720281 11.125527047525338 H 0.0 **** 0.06
28049 H 95.0056742916158 33.01358853101499 11.179075545579906 H 0.0 **** 0.06
28050 H 95.96614723155983 33.538241491548064 12.5833491760921 H 0.0 **** 0.06
28051 C 12.73645199518657 30.29369403194263 25.256754378874405 C 0.0 **** -0.24
28052 H 11.666972174277447 30.289632777968492 25.468621272875026 H 0.0 **** 0.06
28053 H 13.206321355903015 29.43928715716615 25.745947506790976 H 0.0 **** 0.06
28054 H 13.178366963749767 31.215816873965153 25.632188351092516 H 0.0 **** 0.06
28055 H 12.89273119003471 30.226576084199657 24.18029021261389 H 0.0 **** 0.06
28056 C 110.84991660480577 78.74510506737028 3.7943649715259653 C 0.0 **** -0.24
28057 H 110.1314720700523 78.46618674568748 3.0228462028120475 H 0.0 **** 0.06
28058 H 111.30710035224905 77.84614503359614 4.207782442753967 H 0.0 **** 0.06
28059 H 110.33685581030176 79.29004670938917 4.586754620298336 H 0.0 **** 0.06
28060 H 111.62142759654219 79.37902020639336 3.3578085712841244 H 0.0 **** 0.06
28061 C 112.3226161446642 55.77028450150822 21.436974410537502 C 0.0 **** -0.24
28062 H 112.50314456130147 56.82785925109004 21.63019781742426 H 0.0 **** 0.06
28063 H 111.24868241196677 55.58150392524339 21.424269360656012 H 0.0 **** 0.06
28064 H 112.7881146304347 55.17363912418892 22.220965187793723 H 0.0 **** 0.06
28065 H 112.75051072188884 55.49967347189118 20.471668224578167 H 0.0 **** 0.06
28066 C 116.2563363614824 27.09073197347668 26.914278608140478 C 0.0 **** -0.24
28067 H 117.03147890115048 26.704240121242968 26.25285726128044 H 0.0 **** 0.06
28068 H 115.48753272601874 27.58576143679526 26.321088989849954 H 0.0 **** 0.06
28069 H 116.69630533669817 27.8058308040018 27.60957790197574 H 0.0 **** 0.06
28070 H 115.81216619121574 26.267464182328297 27.47245246119823 H 0.0 **** 0.06
28071 C 74.52455969615545 4.560578825169728 36.93548093173442 C 0.0 **** -0.24
28072 H 74.09013411583743 4.417784135837593 35.94592232592754 H 0.0 **** 0.06
28073 H 74.28407343789411 3.7031694343882293 37.564574454964514 H 0.0 **** 0.06
28074 H 74.11654875785052 5.466990258519445 37.38301141109437 H 0.0 **** 0.06
28075 H 75.60675919383581 4.654615015078093 36.846860632729914 H 0.0 **** 0.06
28076 C 50.7669715934891 117.90068990724801 29.583730487783015 C 0.0 **** -0.24
28077 H 49.819156122535986 117.72947788253911 30.09537438698105 H 0.0 **** 0.06
28078 H 50.83724329588752 117.23836682741059 28.720395557149715 H 0.0 **** 0.06
28079 H 51.59023316636029 117.69669391201718 30.26762308823055 H 0.0 **** 0.06
28080 H 50.81789668595039 118.93854739916945 29.252318851725178 H 0.0 **** 0.06
28081 C 20.316479299066028 109.13957625412993 37.09210778641474 C 0.0 **** -0.24
28082 H 20.102695832814756 108.83544548177412 38.117060598380846 H 0.0 **** 0.06
28083 H 20.367974892240827 110.22703448628894 37.03982090572549 H 0.0 **** 0.06
28084 H 19.52419096473026 108.78121143300592 36.43433121408705 H 0.0 **** 0.06
28085 H 21.26998704897734 108.71496116519367 36.77807733320553 H 0.0 **** 0.06
28086 C 95.99654669830889 27.525610317502725 86.17320321279072 C 0.0 **** -0.24
28087 H 96.53082599974124 26.854319224169892 86.84476033471833 H 0.0 **** 0.06
28088 H 96.23083390673003 27.26890725332145 85.14011262250182 H 0.0 **** 0.06
28089 H 96.30047671964635 28.554599556258324 86.37027915026599 H 0.0 **** 0.06
28090 H 94.92376396093479 27.426250581664533 86.33815460440553 H 0.0 **** 0.06
28091 C 90.2475660716969 54.81812835000926 103.53942387470096 C 0.0 **** -0.24
28092 H 91.15321297967355 55.33542874796382 103.22250099305526 H 0.0 **** 0.06
28093 H 89.58316574965684 55.52270573020286 104.03893364996486 H 0.0 **** 0.06
28094 H 90.51082580370283 54.015152759480344 104.22745483911942 H 0.0 **** 0.06
28095 H 89.74584091160472 54.3984615736305 102.66750943590523 H 0.0 **** 0.06
28096 C 55.16139996006737 43.25892598345864 72.01314094892504 C 0.0 **** -0.24
28097 H 55.68691627610383 43.08026280700889 71.07437778906504 H 0.0 **** 0.06
28098 H 55.83282399767447 43.058018878427646 72.8483398839023 H 0.0 **** 0.06
28099 H 54.29584162568099 42.60055676254383 72.07538064279959 H 0.0 **** 0.06
28100 H 54.83222063415758 44.2970013398311 72.05269626230512 H 0.0 **** 0.06
28101 C 34.27378832941409 9.64661672284046 35.48328250277887 C 0.0 **** -0.24
28102 H 33.72455000895124 10.373210393961937 36.08147143294683 H 0.0 **** 0.06
28103 H 34.293929863611595 9.972277682288194 34.44377188318474 H 0.0 **** 0.06
28104 H 33.78195619280325 8.675663022296561 35.550463221432 H 0.0 **** 0.06
28105 H 35.29347555804705 9.564106293797586 35.858421236141005 H 0.0 **** 0.06
28106 C 108.22436140976703 86.19325784175925 27.70012988440118 C 0.0 **** -0.24
28107 H 107.72219429279872 86.93862451863754 27.083315618709122 H 0.0 **** 0.06
28108 H 109.02614788456293 85.72842127303602 27.126355063500867 H 0.0 **** 0.06
28109 H 107.50639499300146 85.43111639510914 28.005147653449043 H 0.0 **** 0.06
28110 H 108.64180718061235 86.67415851517032 28.584403973399944 H 0.0 **** 0.06
28111 C 22.756241467593192 94.45916114793985 20.205368444423783 C 0.0 **** -0.24
28112 H 23.024005592858686 95.51248710085201 20.291001165085518 H 0.0 **** 0.06
28113 H 23.645838322678827 93.84633061769225 20.34907744747366 H 0.0 **** 0.06
28114 H 22.338812734494702 94.26940429290633 19.217033653041895 H 0.0 **** 0.06
28115 H 22.016367790409447 94.21031823547261 20.966459965416803 H 0.0 **** 0.06
28116 C 96.4742341389505 75.53537529399671 41.58220130867074 C 0.0 **** -0.24
28117 H 97.49338097901324 75.82687409312683 41.835393483391215 H 0.0 **** 0.06
28118 H 95.85306831069306 75.56768962535472 42.477716784763984 H 0.0 **** 0.06
28119 H 96.47581055470724 74.52435739536881 41.1764299681888 H 0.0 **** 0.06
28120 H 96.07384137607835 76.22443822308097 40.83790492966429 H 0.0 **** 0.06
28121 C 48.12044985589506 42.98101497157478 13.072845897956256 C 0.0 **** -0.24
28122 H 48.61603944959697 43.94762358695297 12.984897932183884 H 0.0 **** 0.06
28123 H 48.82004364108349 42.25098867291598 13.480856080779063 H 0.0 **** 0.06
28124 H 47.7865888871258 42.65350881588918 12.0880785537463 H 0.0 **** 0.06
28125 H 47.26141145208051 43.07181062644645 13.736675115300613 H 0.0 **** 0.06
28126 C 122.22384167502534 52.99708800326232 41.154723609400634 C 0.0 **** -0.24
28127 H 122.27302177604128 53.86025747534535 40.49116962400686 H 0.0 **** 0.06
28128 H 123.11271052823349 52.379906630356416 41.01501470354536 H 0.0 **** 0.06
28129 H 121.33468902447248 52.41081012235773 40.92181597754883 H 0.0 **** 0.06
28130 H 122.17533950628157 53.33588156341625 42.188995103108255 H 0.0 **** 0.06
28131 C 55.972141469915954 76.37976828963212 71.06292942060526 C 0.0 **** -0.24
28132 H 56.20036473194463 75.68383742623115 70.25599294570506 H 0.0 **** 0.06
28133 H 56.7969680604445 76.39360500126219 71.77565502886637 H 0.0 **** 0.06
28134 H 55.0590030976399 76.06471250863018 71.56827120249145 H 0.0 **** 0.06
28135 H 55.832036253120805 77.38003653717658 70.65068531560084 H 0.0 **** 0.06
28136 C 36.6771840497483 34.486252665848724 15.96490039034347 C 0.0 **** -0.24
28137 H 35.77180686107937 34.964679409643566 16.33871871441489 H 0.0 **** 0.06
28138 H 36.69006379412273 33.44156756749146 16.27750773317752 H 0.0 **** 0.06
28139 H 37.55060356551176 34.997392411822375 16.368203706759193 H 0.0 **** 0.06
28140 H 36.693733471686656 34.54065576341026 14.876217898150532 H 0.0 **** 0.06
28141 C 61.636353426012306 1.645390991933283 29.902314649033443 C 0.0 **** -0.24
28142 H 62.26317839044009 0.81147187905961 29.584502479836345 H 0.0 **** 0.06
28143 H 60.9480764740332 1.9086588137931955 29.098590771806016 H 0.0 **** 0.06
28144 H 62.26521718688093 2.503342437540354 30.138191238534745 H 0.0 **** 0.06
28145 H 61.06904257277756 1.3565040990618797 30.78676072249516 H 0.0 **** 0.06
28146 C 97.46534578093465 86.16205657681186 43.33642927396865 C 0.0 **** -0.24
28147 H 97.77286158609726 85.67917641553387 44.26433872260632 H 0.0 **** 0.06
28148 H 97.02736485108102 87.13392498984669 43.56154827024909 H 0.0 **** 0.06
28149 H 96.72886681708346 85.53878307896173 42.830208020228426 H 0.0 **** 0.06
28150 H 98.33411030302486 86.29510790869179 42.6914008246808 H 0.0 **** 0.06
28151 C 60.75339902486422 89.3835239824891 24.90521412772536 C 0.0 **** -0.24
28152 H 61.5609055495793 89.68678322848731 25.57125477649594 H 0.0 **** 0.06
28153 H 61.138752007131075 88.68565944055703 24.162179631889536 H 0.0 **** 0.06
28154 H 60.34712515774339 90.26227603237459 24.403255392981052 H 0.0 **** 0.06
28155 H 59.96699807055771 88.90016227710927 25.484758017955315 H 0.0 **** 0.06
28156 C 69.99042207519676 22.94530346026403 94.097133967953 C 0.0 **** -0.24
28157 H 70.39112600160354 22.56843664405821 93.1560585716114 H 0.0 **** 0.06
28158 H 68.98949462629099 22.540613555142812 94.25317741159327 H 0.0 **** 0.06
28159 H 69.94157466168136 24.03346098084674 94.06223057528973 H 0.0 **** 0.06
28160 H 70.63936085916922 22.6362874835649 94.91745633751506 H 0.0 **** 0.06
28161 C 25.009297878621254 95.67549865260494 84.9381653532864 C 0.0 **** -0.24
28162 H 24.475074162248546 94.7363884223737 85.08270646070457 H 0.0 **** 0.06
28163 H 26.063110889956647 95.53366529863015 85.17934081849666 H 0.0 **** 0.06
28164 H 24.585678679285223 96.43853469448712 85.59036382210772 H 0.0 **** 0.06
28165 H 24.913303815024364 95.99172394925839 83.89983843560728 H 0.0 **** 0.06
28166 C 39.041501992786436 55.477849816331 81.9949326799364 C 0.0 **** -0.24
28167 H 38.00979629564034 55.161024438623144 82.14879035422314 H 0.0 **** 0.06
28168 H 39.679681408147246 55.01257642420461 82.74703633396979 H 0.0 **** 0.06
28169 H 39.10565252618875 56.56232170064425 82.08390217328886 H 0.0 **** 0.06
28170 H 39.369456730298396 55.174201875269205 81.0011662566491 H 0.0 **** 0.06
28171 C 31.901771505897997 52.29149181629834 40.692358334489995 C 0.0 **** -0.24
28172 H 32.178934767079824 51.71309453295382 41.57262882398487 H 0.0 **** 0.06
28173 H 32.794655556125974 52.5130420129119 40.10757827068812 H 0.0 **** 0.06
28174 H 31.42913518547931 53.223239856600166 41.00310361139566 H 0.0 **** 0.06
28175 H 31.20258065078599 51.71575165552947 40.0846638142321 H 0.0 **** 0.06
28176 C 97.01633695418028 0.503879778270246 84.68921339551818 C 0.0 **** -0.24
28177 H 96.95351196395393 -0.4488254688738351 85.21589158081244 H 0.0 **** 0.06
28178 H 97.24591975876749 0.32393496350967155 83.63883215779674 H 0.0 **** 0.06
28179 H 97.80212927828731 1.1134981535994228 85.13428972443734 H 0.0 **** 0.06
28180 H 96.06251675276755 1.0258518914000803 84.76835432833875 H 0.0 **** 0.06
28181 C 109.6206198646903 94.74181070267687 12.55135719679302 C 0.0 **** -0.24
28182 H 109.8113868920378 95.55947208236452 13.246498868046302 H 0.0 **** 0.06
28183 H 109.24709338110944 93.87772715711594 13.101212399350601 H 0.0 **** 0.06
28184 H 110.54605936551982 94.47538378048142 12.040900981102226 H 0.0 **** 0.06
28185 H 108.87820368777565 95.05477333988367 11.817774419721019 H 0.0 **** 0.06
28186 C 80.1155220563052 17.726855758084497 51.43988818650743 C 0.0 **** -0.24
28187 H 79.54110950236768 18.640950182579502 51.58579109241228 H 0.0 **** 0.06
28188 H 81.14541525982938 17.980019992938253 51.19069163735605 H 0.0 **** 0.06
28189 H 79.67570566676179 17.148417196380876 50.6270287028882 H 0.0 **** 0.06
28190 H 80.09767074391391 17.137048699061523 52.356534307532 H 0.0 **** 0.06
28191 C 94.59448095309926 10.068807714940451 80.98326123331316 C 0.0 **** -0.24
28192 H 94.58911402728984 10.801548275565679 80.17584211142878 H 0.0 **** 0.06
28193 H 95.11388701938884 9.16790186822934 80.65330025918888 H 0.0 **** 0.06
28194 H 93.56898873384648 9.818650057240145 81.25441057080221 H 0.0 **** 0.06
28195 H 95.10738341499766 10.486407335252277 81.85010539112673 H 0.0 **** 0.06
28196 C 97.70340692832985 38.45592874777995 22.041829673571982 C 0.0 **** -0.24
28197 H 98.32554969983022 37.81064654033837 22.661857383964005 H 0.0 **** 0.06
28198 H 96.96251708326719 38.955423863269246 22.66625261369873 H 0.0 **** 0.06
28199 H 97.19637091710592 37.853762169841296 21.287815726885768 H 0.0 **** 0.06
28200 H 98.32885037033157 39.20098044673654 21.550712008333363 H 0.0 **** 0.06
28201 C 93.13427396174905 81.83410270866034 117.57028988815392 C 0.0 **** -0.24
28202 H 93.32046793726087 81.62481029903253 118.62458620616653 H 0.0 **** 0.06
28203 H 92.07102192363075 81.71773650818386 117.3594673048367 H 0.0 **** 0.06
28204 H 93.7058887320583 81.1391597901015 116.95625898774671 H 0.0 **** 0.06
28205 H 93.44022162854148 82.85575525668992 117.34504729460275 H 0.0 **** 0.06
28206 C 76.77239282747956 61.858273403266416 50.50884802027562 C 0.0 **** -0.24
28207 H 77.64426982431286 61.23200013411287 50.6974836917405 H 0.0 **** 0.06
28208 H 77.09947343067768 62.85847954939762 50.22310315891919 H 0.0 **** 0.06
28209 H 76.16638491226036 61.919016049828734 51.41254146308415 H 0.0 **** 0.06
28210 H 76.18159577782308 61.42476074775961 49.7023830728444 H 0.0 **** 0.06
28211 C 20.764760770467262 38.55885093830253 74.09427497763147 C 0.0 **** -0.24
28212 H 20.259749723718755 38.10020451242539 73.24318713308281 H 0.0 **** 0.06
28213 H 20.83224302665866 37.83662679071668 74.90791160316513 H 0.0 **** 0.06
28214 H 20.19820197345146 39.42880384600352 74.42604173972626 H 0.0 **** 0.06
28215 H 21.76625572793344 38.86833732118478 73.79767241078224 H 0.0 **** 0.06
28216 C 94.8903155363088 118.81297132014838 94.18516202773205 C 0.0 **** -0.24
28217 H 94.1868680330681 118.22188217973753 94.7713389226416 H 0.0 **** 0.06
28218 H 95.09074521240947 119.75345724470802 94.69982539453281 H 0.0 **** 0.06
28219 H 94.46311202195284 119.01918205803983 93.20381936810116 H 0.0 **** 0.06
28220 H 95.82112153095935 118.25746720304116 94.06694801415108 H 0.0 **** 0.06
28221 C 36.6358741446129 63.28032043876493 31.412078912911113 C 0.0 **** -0.24
28222 H 36.18298953965626 62.29674951447549 31.538316467037788 H 0.0 **** 0.06
28223 H 35.919229430319604 63.95219382530561 30.938802372046837 H 0.0 **** 0.06
28224 H 37.522242369139576 63.192914794293614 30.7836755732842 H 0.0 **** 0.06
28225 H 36.91816578841389 63.677772596636885 32.386288984428745 H 0.0 **** 0.06
28226 C 24.88289604741516 118.93074703076985 69.0739139309866 C 0.0 **** -0.24
28227 H 24.1147983919426 118.2360586552019 69.41512534799412 H 0.0 **** 0.06
28228 H 25.407238707229283 118.50107628366104 68.21945267394713 H 0.0 **** 0.06
28229 H 25.592165138835185 119.11248142058139 69.88142993733968 H 0.0 **** 0.06
28230 H 24.417738132961574 119.8711733067694 68.77984826553211 H 0.0 **** 0.06
28231 C 42.86750827863 46.51777295800514 94.4991448168687 C 0.0 **** -0.24
28232 H 43.31009865456301 45.52258991151166 94.52927023891667 H 0.0 **** 0.06
28233 H 43.21440942658724 47.09551954148219 95.35554692892777 H 0.0 **** 0.06
28234 H 41.7810489853816 46.43344169881772 94.53344648193666 H 0.0 **** 0.06
28235 H 43.16352715882769 47.019734162456245 93.57806615899273 H 0.0 **** 0.06
28236 C 50.71113985339721 74.68487224906676 111.07308973972738 C 0.0 **** -0.24
28237 H 50.292179470405955 73.69366183899749 110.89863266895856 H 0.0 **** 0.06
28238 H 51.518343956281115 74.61453532214483 111.80172843294501 H 0.0 **** 0.06
28239 H 49.933070596791936 75.34513227278515 111.45572016457001 H 0.0 **** 0.06
28240 H 51.099831232170374 75.08457567145126 110.13673068037514 H 0.0 **** 0.06
28241 C 4.256894327684492 5.120567486875885 102.17569705028558 C 0.0 **** -0.24
28242 H 4.158221463799922 5.582396033926273 103.15775517098464 H 0.0 **** 0.06
28243 H 4.505838228500924 5.884498000688794 101.43799634811484 H 0.0 **** 0.06
28244 H 3.314976454471255 4.645038441045898 101.90136512862989 H 0.0 **** 0.06
28245 H 5.047455358320949 4.37090299835242 102.2049635158476 H 0.0 **** 0.06
28246 C 78.581701435621 77.41784698175428 120.1091455539067 C 0.0 **** -0.24
28247 H 77.68948849152261 77.50389617750454 119.48823350194607 H 0.0 **** 0.06
28248 H 79.34225685443658 76.84827133535879 119.57455954851488 H 0.0 **** 0.06
28249 H 78.32939405004981 76.90637948256835 121.03736807041636 H 0.0 **** 0.06
28250 H 78.96469554481513 78.41359872007132 120.33430363525173 H 0.0 **** 0.06
28251 C 12.21532014636469 50.17705724963597 118.01142680807148 C 0.0 **** -0.24
28252 H 13.254325499291525 49.91028299834665 118.20528117209315 H 0.0 **** 0.06
28253 H 12.085969303203541 51.25112230318593 118.14116384150383 H 0.0 **** 0.06
28254 H 11.56823781349948 49.6445833574474 118.70836592325762 H 0.0 **** 0.06
28255 H 11.954929916980944 49.899463472236604 116.98965981164422 H 0.0 **** 0.06
28256 C 99.15232518912876 50.62618668909819 102.06284529792583 C 0.0 **** -0.24
28257 H 99.65548479543702 50.78675759779382 103.0161146718157 H 0.0 **** 0.06
28258 H 98.9948374021242 51.585634443796295 101.57022706114375 H 0.0 **** 0.06
28259 H 98.19063412296006 50.143845150564545 102.23750226837925 H 0.0 **** 0.06
28260 H 99.76993925489538 49.988254565312616 101.42937889126193 H 0.0 **** 0.06
28261 C 96.09189123137617 44.875586917408725 59.922228702042815 C 0.0 **** -0.24
28262 H 95.27495318078795 44.424279818212995 60.48500595382171 H 0.0 **** 0.06
28263 H 96.58144850905646 45.631789012356506 60.53599429159337 H 0.0 **** 0.06
28264 H 95.69664553743888 45.34136609682329 59.01963039011659 H 0.0 **** 0.06
28265 H 96.81277008879067 44.106224094092795 59.64780825676928 H 0.0 **** 0.06
28266 C 5.37402307160221 11.362599272932329 21.609249847565735 C 0.0 **** -0.24
28267 H 6.375186527178215 11.79233344897662 21.63319505202398 H 0.0 **** 0.06
28268 H 4.64038867645661 12.158284023504592 21.47473384525418 H 0.0 **** 0.06
28269 H 5.179248502880284 10.843292930390845 22.54705092593005 H 0.0 **** 0.06
28270 H 5.300979947219076 10.657288362395306 20.78149605355938 H 0.0 **** 0.06
28271 C 15.902624909460712 73.3025845166527 21.476579058424136 C 0.0 **** -0.24
28272 H 15.249922359589902 72.79434452711973 22.187398097613 H 0.0 **** 0.06
28273 H 16.71240580147976 73.79585276082668 22.015386580648965 H 0.0 **** 0.06
28274 H 15.32840210128488 74.0443738874078 20.92297023077961 H 0.0 **** 0.06
28275 H 16.319279330703623 72.57253560134245 20.782383246957608 H 0.0 **** 0.06
28276 C 2.2644508685814912 53.94329474314449 66.24287090264215 C 0.0 **** -0.24
28277 H 2.4546531185393974 53.68076956964563 67.28352971538851 H 0.0 **** 0.06
28278 H 1.3480203744818766 54.53043905269638 66.1793345572749 H 0.0 **** 0.06
28279 H 2.1544060818823425 53.03337780486606 65.65229365914416 H 0.0 **** 0.06
28280 H 3.0986383516195417 54.52848116619964 65.85712465520345 H 0.0 **** 0.06
28281 C 58.537208608027534 100.89453545066738 7.151933853070201 C 0.0 **** -0.24
28282 H 58.726821494444316 101.91430381926875 7.488226293202743 H 0.0 **** 0.06
28283 H 57.47838143886805 100.77853564488191 6.923005616494027 H 0.0 **** 0.06
28284 H 58.818832733059004 100.19487809081556 7.939486145966352 H 0.0 **** 0.06
28285 H 59.127624114969045 100.69170394843246 6.257634061081582 H 0.0 **** 0.06
28286 C 32.07378857823765 105.81555609910481 46.91008068933066 C 0.0 **** -0.24
28287 H 32.7008336783153 104.93964936117325 47.07773802010458 H 0.0 **** 0.06
28288 H 31.060840652362188 105.60858451977944 47.256908390763535 H 0.0 **** 0.06
28289 H 32.05288112571929 106.04941582016471 45.84552930268006 H 0.0 **** 0.06
28290 H 32.480598856553854 106.66457469530175 47.46014704377443 H 0.0 **** 0.06
28291 C 80.3916320963645 101.79278926667266 53.97898823934713 C 0.0 **** -0.24
28292 H 81.4062169154725 101.54846503766464 53.6640351404223 H 0.0 **** 0.06
28293 H 80.34525169329498 102.84165955350849 54.27366630961083 H 0.0 **** 0.06
28294 H 80.11329346542499 101.16552781716021 54.825676371620546 H 0.0 **** 0.06
28295 H 79.70303110751973 101.61590176751028 53.153067787825336 H 0.0 **** 0.06
28296 C 52.12934424446303 77.53161203943176 46.98914680241135 C 0.0 **** -0.24
28297 H 52.17071378907592 77.7678346475081 45.92562642349635 H 0.0 **** 0.06
28298 H 52.7352282451331 76.64757680020108 47.187929105650475 H 0.0 **** 0.06
28299 H 51.09629614158608 77.33579666759243 47.27806398199794 H 0.0 **** 0.06
28300 H 52.514095969976395 78.37407629241608 47.56336817810996 H 0.0 **** 0.06
28301 C 105.82106698553181 44.5607039553623 0.8342826450020713 C 0.0 **** -0.24
28302 H 105.69755631786597 43.47941693033509 0.7670839776334635 H 0.0 **** 0.06
28303 H 105.36087143068008 44.92281755763731 1.7536965487790184 H 0.0 **** 0.06
28304 H 105.34300221914631 45.03467203924202 -0.022913048345246878 H 0.0 **** 0.06
28305 H 106.88337488554436 44.80520141946499 0.838162760587057 H 0.0 **** 0.06
28306 C 78.49171124814785 104.9759367511216 20.289903266866222 C 0.0 **** -0.24
28307 H 78.35008490439313 103.90579850944857 20.13949635549401 H 0.0 **** 0.06
28308 H 78.41517004475094 105.48980138194827 19.33146352548922 H 0.0 **** 0.06
28309 H 79.47710289901227 105.15420677885373 20.720767791374954 H 0.0 **** 0.06
28310 H 77.72475267133547 105.35182237093068 20.967219057942756 H 0.0 **** 0.06
28311 C 64.30418490376718 81.54244938112805 23.358725930566735 C 0.0 **** -0.24
28312 H 64.85263373132122 81.86380920554927 24.243781203603533 H 0.0 **** 0.06
28313 H 64.63954018828534 82.1170906976746 22.495337072434836 H 0.0 **** 0.06
28314 H 63.23750619278536 81.7058504027782 23.51294581600034 H 0.0 **** 0.06
28315 H 64.48828049744026 80.48241628577921 23.18317310736701 H 0.0 **** 0.06
28316 C 82.30073420998761 64.10670586824466 56.073307433353705 C 0.0 **** -0.24
28317 H 81.29265724494891 64.09168319916915 56.488718472774224 H 0.0 **** 0.06
28318 H 82.82098456644994 63.18892092901092 56.35020378182611 H 0.0 **** 0.06
28319 H 82.84295551273016 64.96495375413764 56.468917972390784 H 0.0 **** 0.06
28320 H 82.24517394515536 64.17899498597944 54.98773182735687 H 0.0 **** 0.06
28321 C 11.584366226937107 104.77466756644935 19.232631136448646 C 0.0 **** -0.24
28322 H 11.152930894112785 105.60519509473997 19.79216554730229 H 0.0 **** 0.06
28323 H 12.254206300158955 104.21028166945541 19.881391465817103 H 0.0 **** 0.06
28324 H 12.144563373634469 105.16299202583693 18.38081160293214 H 0.0 **** 0.06
28325 H 10.787490553726172 104.12244173417434 18.876199210078653 H 0.0 **** 0.06
28326 C 48.29671273082582 1.113597801871009 98.02023063190717 C 0.0 **** -0.24
28327 H 47.207607228661544 1.0869277329952354 97.97477639489372 H 0.0 **** 0.06
28328 H 48.660614667413824 0.21771636998236943 98.52501580023821 H 0.0 **** 0.06
28329 H 48.61594807621137 1.9971354272821173 98.57230412805592 H 0.0 **** 0.06
28330 H 48.70198331539251 1.150314127022412 97.00931087090456 H 0.0 **** 0.06
28331 C 87.91563365598935 112.87538016584847 10.515611131648427 C 0.0 **** -0.24
28332 H 88.86113238762348 112.92114919998951 9.97504061548193 H 0.0 **** 0.06
28333 H 87.10187959309201 112.71063217118378 9.809217073655702 H 0.0 **** 0.06
28334 H 87.75440813979418 113.8139268596004 11.044857295914966 H 0.0 **** 0.06
28335 H 87.9466085152794 112.054562677271 11.232231216212938 H 0.0 **** 0.06
28336 C 28.222548046864745 108.83937924126269 53.65991957782422 C 0.0 **** -0.24
28337 H 27.411563734317866 109.55111070120392 53.50845389665255 H 0.0 **** 0.06
28338 H 27.829214388139036 107.82434926539327 53.61137198810392 H 0.0 **** 0.06
28339 H 28.6749821488269 109.0080378372005 54.63807288484188 H 0.0 **** 0.06
28340 H 28.975816199875766 108.97608936677523 52.883970116970026 H 0.0 **** 0.06
28341 C 108.70936740300232 22.85672118649765 21.561153084184298 C 0.0 **** -0.24
28342 H 109.345038484378 23.697677334843547 21.835364811712864 H 0.0 **** 0.06
28343 H 107.95583303422137 22.70335686310284 22.333635101003296 H 0.0 **** 0.06
28344 H 109.31823627918851 21.958006646516367 21.46402439673591 H 0.0 **** 0.06
28345 H 108.21837915705697 23.066858022512378 20.610574196373165 H 0.0 **** 0.06
28346 C 20.037584075340703 100.44157503993853 12.112855385801424 C 0.0 **** -0.24
28347 H 20.141124839282867 100.45538536942499 11.028624495652423 H 0.0 **** 0.06
28348 H 19.40917985285313 101.27400460208759 12.428249174429624 H 0.0 **** 0.06
28349 H 21.021475467206088 100.53352781848528 12.573959062825622 H 0.0 **** 0.06
28350 H 19.57808313855142 99.50193778377653 12.422228846083527 H 0.0 **** 0.06
28351 C 96.41798481133193 112.0431785314712 19.00265626003494 C 0.0 **** -0.24
28352 H 97.03514937993322 112.28088586659658 19.868926559395163 H 0.0 **** 0.06
28353 H 97.05827440862907 111.84214724661689 18.143934089755817 H 0.0 **** 0.06
28354 H 95.76503789189505 112.88768265386884 18.779512126004363 H 0.0 **** 0.06
28355 H 95.81216891908107 111.16311578590631 19.218449672819304 H 0.0 **** 0.06
28356 C 90.77627538438534 32.95697523776553 121.6006688439835 C 0.0 **** -0.24
28357 H 89.69862147042798 33.11466214660882 121.5617459941299 H 0.0 **** 0.06
28358 H 90.98614584000012 31.997178969529102 122.07337348533139 H 0.0 **** 0.06
28359 H 91.23876457875173 33.75612594905803 122.17956519928381 H 0.0 **** 0.06
28360 H 91.18102787058953 32.96073514572785 120.58902247759403 H 0.0 **** 0.06
28361 C 91.09297037134965 41.37357218341998 18.77326967999465 C 0.0 **** -0.24
28362 H 91.44725912071505 41.591764058850686 19.78046126389066 H 0.0 **** 0.06
28363 H 91.72561533268811 41.884472503478094 18.047751024808836 H 0.0 **** 0.06
28364 H 90.0646627989367 41.718604395381135 18.666628114341574 H 0.0 **** 0.06
28365 H 91.13512908896604 40.298348369586165 18.598657146417878 H 0.0 **** 0.06
28366 C 71.57660212804049 78.77849193458871 45.139581425332295 C 0.0 **** -0.24
28367 H 72.2609008818711 79.61262265616477 45.29345235303286 H 0.0 **** 0.06
28368 H 71.54219586999227 78.52854041719439 44.079130302550624 H 0.0 **** 0.06
28369 H 70.5804542709325 79.05945940494794 45.479107225585196 H 0.0 **** 0.06
28370 H 71.92434011733405 77.91465653576898 45.70634843028367 H 0.0 **** 0.06
28371 C 27.39989377069213 1.1182063936966244 29.433888348474255 C 0.0 **** -0.24
28372 H 26.48845794539409 1.0908704120411983 30.029974362438004 H 0.0 **** 0.06
28373 H 27.46089319304417 2.070822896667039 28.90727936555752 H 0.0 **** 0.06
28374 H 27.384150361536186 0.30330048585014424 28.710379801304768 H 0.0 **** 0.06
28375 H 28.265145748473657 1.0076856844852387 30.087576593319007 H 0.0 **** 0.06
28376 C 34.23700340019067 66.01208173022647 86.05142309790983 C 0.0 **** -0.24
28377 H 35.004354639015105 65.97984985017604 86.8253490321556 H 0.0 **** 0.06
28378 H 34.339178944558086 66.93252197072306 85.47574514631015 H 0.0 **** 0.06
28379 H 33.25199001154621 65.9809658424513 86.51581031406135 H 0.0 **** 0.06
28380 H 34.354399108266506 65.15382504591665 85.3887731767735 H 0.0 **** 0.06
28381 C 61.13501548339872 53.09011143164844 98.82816662747348 C 0.0 **** -0.24
28382 H 61.127288719286355 53.83899405226586 98.03563946967262 H 0.0 **** 0.06
28383 H 61.805003655142 53.411919369968786 99.62525169962058 H 0.0 **** 0.06
28384 H 61.47947246992422 52.137665462675784 98.42407227580028 H 0.0 **** 0.06
28385 H 60.12672539342145 52.972891860759205 99.22515754623544 H 0.0 **** 0.06
28386 C 24.230179793986736 49.01992124046363 91.32054857079885 C 0.0 **** -0.24
28387 H 24.61774213681292 49.67157554868234 90.53643549824145 H 0.0 **** 0.06
28388 H 23.3749423317596 49.49582688544578 91.79849389382807 H 0.0 **** 0.06
28389 H 25.00925259226517 48.84205568626058 92.06266151141054 H 0.0 **** 0.06
28390 H 23.921745218282013 48.07062800964488 90.88316821562444 H 0.0 **** 0.06
28391 C 30.07865975038112 10.565249849662877 70.74636229667888 C 0.0 **** -0.24
28392 H 29.171830541414295 11.169159257036576 70.70962867634188 H 0.0 **** 0.06
28393 H 30.898956090389333 11.165843000923811 71.14099247639248 H 0.0 **** 0.06
28394 H 30.32863214858844 10.224355423893563 69.74113596423243 H 0.0 **** 0.06
28395 H 29.914837613489226 9.702578619026657 71.39270417454705 H 0.0 **** 0.06
28396 C 75.34854558488576 84.13570152919036 12.364391900793066 C 0.0 **** -0.24
28397 H 76.18430110248767 84.80986906670915 12.556808328441065 H 0.0 **** 0.06
28398 H 74.41752895552224 84.70319642510185 12.359317385579402 H 0.0 **** 0.06
28399 H 75.30824315673229 83.3766855041302 13.146066099437348 H 0.0 **** 0.06
28400 H 75.4867288432807 83.65413513113396 11.396361261058814 H 0.0 **** 0.06
28401 C 14.861481701116816 21.66986887025024 6.019622019433456 C 0.0 **** -0.24
28402 H 14.062651824049624 22.039765903472016 5.377960066036607 H 0.0 **** 0.06
28403 H 14.470357941968189 21.49558866680033 7.02245789659823 H 0.0 **** 0.06
28404 H 15.661611830571019 22.40833291781965 6.064929049698218 H 0.0 **** 0.06
28405 H 15.250640158210103 20.737014372946362 5.613373040114894 H 0.0 **** 0.06
28406 C 59.02980111916264 17.636570539818866 65.95238783649489 C 0.0 **** -0.24
28407 H 58.76537803106817 18.693780897455742 65.92943524605451 H 0.0 **** 0.06
28408 H 59.99355709034759 17.513537451260248 66.44735901134504 H 0.0 **** 0.06
28409 H 59.09297335910679 17.255361520647458 64.93266574743924 H 0.0 **** 0.06
28410 H 58.26609277889625 17.083040120202774 66.49960518804119 H 0.0 **** 0.06
28411 C 20.19036114434431 67.86974559547022 62.26040947294098 C 0.0 **** -0.24
28412 H 21.234651723275448 68.1763939483121 62.20795892078522 H 0.0 **** 0.06
28413 H 19.93008616188621 67.64378134159213 63.29394909851419 H 0.0 **** 0.06
28414 H 20.041092308145096 66.98224999881623 61.64571484014732 H 0.0 **** 0.06
28415 H 19.55638783575111 68.67701475283167 61.893576425676 H 0.0 **** 0.06
28416 C 17.71925532889577 83.08904552607413 27.75885362784122 C 0.0 **** -0.24
28417 H 16.808020595183734 82.5399186255965 27.995893782584254 H 0.0 **** 0.06
28418 H 18.079413051583003 83.59701504494302 28.653187168910172 H 0.0 **** 0.06
28419 H 17.508123785638645 83.82333370024355 26.982061232475772 H 0.0 **** 0.06
28420 H 18.480284774101847 82.3933452784733 27.40418261738637 H 0.0 **** 0.06
28421 C 72.40720533728702 24.555052547559697 80.44325929966169 C 0.0 **** -0.24
28422 H 72.92125187140584 24.394207500519784 81.39067322122668 H 0.0 **** 0.06
28423 H 71.52223629781037 25.169391463936464 80.60966132356305 H 0.0 **** 0.06
28424 H 72.10944768685857 23.594293502213176 80.02361474560837 H 0.0 **** 0.06
28425 H 73.07707339594918 25.062780209564608 79.74847545026125 H 0.0 **** 0.06
28426 C 2.7725051902613416 121.30104646622055 1.1254212654414744 C 0.0 **** -0.24
28427 H 1.8138076756459185 121.81852389712142 1.1694366389213542 H 0.0 **** 0.06
28428 H 3.4399153747735625 121.83079282511574 0.44535612501726973 H 0.0 **** 0.06
28429 H 2.6194732989248735 120.2835968545632 0.7667715620236777 H 0.0 **** 0.06
28430 H 3.2150594787946147 121.27202300525282 2.1212703939606 H 0.0 **** 0.06
28431 C 47.18653066674997 49.35938748182534 95.4080243405605 C 0.0 **** -0.24
28432 H 47.61145576392995 49.37093809280081 94.40504064447035 H 0.0 **** 0.06
28433 H 46.84747790689301 50.36134519615641 95.670685873238 H 0.0 **** 0.06
28434 H 47.9453486332818 49.03443723086315 96.1203962939498 H 0.0 **** 0.06
28435 H 46.34286890519366 48.66972869762776 95.4368293637481 H 0.0 **** 0.06
28436 C 113.69200325172699 85.16171594760755 54.71822597994898 C 0.0 **** -0.24
28437 H 114.47042726177243 85.9099848686621 54.57390435210158 H 0.0 **** 0.06
28438 H 113.08783452989509 85.08636989392505 53.813687257420696 H 0.0 **** 0.06
28439 H 113.05847410267293 85.45308579757176 55.5561028011858 H 0.0 **** 0.06
28440 H 114.15164804580178 84.19607805117437 54.92943975473443 H 0.0 **** 0.06
28441 C 75.4053175908605 0.28269556808962015 46.8092313021119 C 0.0 **** -0.24
28442 H 76.08951754035488 0.6426343675279185 47.57775627293982 H 0.0 **** 0.06
28443 H 75.12707021296654 -0.749488916462905 47.02487170610462 H 0.0 **** 0.06
28444 H 75.89442493125844 0.3324894355493093 45.836798442465586 H 0.0 **** 0.06
28445 H 74.51109160173993 0.9064418154721228 46.798292002734996 H 0.0 **** 0.06
28446 C 14.007299865164498 62.81512593318183 5.547643960753248 C 0.0 **** -0.24
28447 H 14.325006465258639 62.707667223462806 6.584726053320935 H 0.0 **** 0.06
28448 H 13.047910891176969 63.33152398187343 5.5134534655204845 H 0.0 **** 0.06
28449 H 13.90509215385481 61.82849225234861 5.094777819857384 H 0.0 **** 0.06
28450 H 14.751189950367632 63.392820275042425 4.997618504314403 H 0.0 **** 0.06
28451 C 121.99545988794388 41.48167263861232 52.58726559150577 C 0.0 **** -0.24
28452 H 120.97285709470462 41.8519431632465 52.50960326811676 H 0.0 **** 0.06
28453 H 122.05179418267412 40.478485987450284 52.16313448680967 H 0.0 **** 0.06
28454 H 122.29179479608666 41.45006148529616 53.63611998141192 H 0.0 **** 0.06
28455 H 122.66423636992644 42.14606228158072 52.041006045683815 H 0.0 **** 0.06
28456 C 58.51303574698172 88.8339402198149 95.4030311197171 C 0.0 **** -0.24
28457 H 58.521885563105364 88.53824202983188 96.45167564408032 H 0.0 **** 0.06
28458 H 58.03088034131495 89.80733144354511 95.30370380403866 H 0.0 **** 0.06
28459 H 57.96330714825944 88.09447308286661 94.82101485622931 H 0.0 **** 0.06
28460 H 59.5371436577197 88.89711606807086 95.03479078455624 H 0.0 **** 0.06
28461 C 45.01992141935341 17.813691976182554 49.92119123192248 C 0.0 **** -0.24
28462 H 44.730403243912065 17.178366137729256 49.0844909258505 H 0.0 **** 0.06
28463 H 44.32703082174032 18.651546497907646 49.99814930300107 H 0.0 **** 0.06
28464 H 46.02958019474826 18.1900751444075 49.75812384468509 H 0.0 **** 0.06
28465 H 44.993094424824264 17.233958283997367 50.84361915016183 H 0.0 **** 0.06
28466 C 95.28286116292583 6.042069110512443 78.47087833971125 C 0.0 **** -0.24
28467 H 96.15666014129357 6.057446917493394 77.8191214660335 H 0.0 **** 0.06
28468 H 94.70632858763668 5.136012581913064 78.28293442180984 H 0.0 **** 0.06
28469 H 94.66419383910409 6.916235020229493 78.26812768143583 H 0.0 **** 0.06
28470 H 95.60655347215715 6.057982681525743 79.51148833630316 H 0.0 **** 0.06
28471 C 92.07334463464639 85.73014760811955 48.03318229614615 C 0.0 **** -0.24
28472 H 91.07934156299177 86.14199760610677 48.20530015238924 H 0.0 **** 0.06
28473 H 92.00268736239383 84.88097030823968 47.35218986640129 H 0.0 **** 0.06
28474 H 92.49902747053824 85.40081498426582 48.98149570593074 H 0.0 **** 0.06
28475 H 92.71313949125937 86.49542133192534 47.594384203522466 H 0.0 **** 0.06
28476 C 72.68611637829258 106.69663197493074 5.349312026356756 C 0.0 **** -0.24
28477 H 72.83419098474852 105.89018704117095 6.0683980289222745 H 0.0 **** 0.06
28478 H 73.24680920566956 106.47958090993134 4.4402314429069065 H 0.0 **** 0.06
28479 H 73.03668031668317 107.63468420148152 5.778370308084618 H 0.0 **** 0.06
28480 H 71.62633439522821 106.77918988546801 5.110933346130537 H 0.0 **** 0.06
28481 C 34.991453226792395 98.33662037254152 91.04076622514165 C 0.0 **** -0.24
28482 H 35.04925128060215 98.31164607128943 92.12927476348437 H 0.0 **** 0.06
28483 H 35.911425009934256 98.76174880771225 90.63780352639387 H 0.0 **** 0.06
28484 H 34.143830159377686 98.9505735102145 90.73631292980195 H 0.0 **** 0.06
28485 H 34.862142429761505 97.32334134569743 90.6609446362726 H 0.0 **** 0.06
28486 C 16.80832533513088 50.7652030218926 49.664366965870585 C 0.0 **** -0.24
28487 H 15.8201283300678 50.433726291877065 49.98403712933711 H 0.0 **** 0.06
28488 H 16.703325280482616 51.53990938253264 48.90533262585126 H 0.0 **** 0.06
28489 H 17.35762601166723 49.92012091248364 49.24953071185048 H 0.0 **** 0.06
28490 H 17.350625919328788 51.165658707286525 50.52111749568431 H 0.0 **** 0.06
28491 C 42.44335507540089 48.26771621714829 53.24849466893192 C 0.0 **** -0.24
28492 H 41.64564654333658 47.70289896241971 52.76642447063349 H 0.0 **** 0.06
28493 H 42.84835697100317 48.99566105912183 52.54445135742456 H 0.0 **** 0.06
28494 H 43.23332748412488 47.58514156083908 53.56098072277765 H 0.0 **** 0.06
28495 H 42.04508263512769 48.786928685600856 54.11990133313129 H 0.0 **** 0.06
28496 C 1.3197688262751655 86.92443264940678 33.525929223966784 C 0.0 **** -0.24
28497 H 0.49303971526050816 86.74360239107415 32.83875272559169 H 0.0 **** 0.06
28498 H 2.1058781006555023 87.47636993154043 33.01039882760887 H 0.0 **** 0.06
28499 H 1.7146150294375389 85.9707585434007 33.876220965928155 H 0.0 **** 0.06
28500 H 0.9648168450897003 87.50544786492799 34.37690720191367 H 0.0 **** 0.06
28501 C 60.07648902068425 99.86443760594551 117.71264991585943 C 0.0 **** -0.24
28502 H 59.67481671221657 99.97873589639647 116.70603610570132 H 0.0 **** 0.06
28503 H 60.30154145330994 98.8145900460973 117.89744864487065 H 0.0 **** 0.06
28504 H 59.34182786664795 100.21217047132092 118.43864368338271 H 0.0 **** 0.06
28505 H 60.98838474902405 100.45438315707833 117.80817263830167 H 0.0 **** 0.06
28506 C 3.5869185097977656 112.6612391502544 81.6733070924214 C 0.0 **** -0.24
28507 H 2.5325856064158963 112.69314958384038 81.94908057689915 H 0.0 **** 0.06
28508 H 3.7627622183954905 113.33333000043322 80.83363275979787 H 0.0 **** 0.06
28509 H 3.857078008493497 111.64419554972599 81.38848028436186 H 0.0 **** 0.06
28510 H 4.194193255249484 112.97373357380434 82.52280091016681 H 0.0 **** 0.06
28511 C 19.701603279855362 12.832890327263357 70.6856220449456 C 0.0 **** -0.24
28512 H 19.150976913210627 12.005751109812593 71.13303171878033 H 0.0 **** 0.06
28513 H 20.726974378305272 12.828333287405826 71.05567675251154 H 0.0 **** 0.06
28514 H 19.222414695848215 13.774968227776839 70.95485566815148 H 0.0 **** 0.06
28515 H 19.705390903639397 12.723008877535932 69.60162951923348 H 0.0 **** 0.06
28516 C 69.23300056827529 39.23510531446661 71.6434319722373 C 0.0 **** -0.24
28517 H 69.39895628576241 39.171672934727184 72.71834876036996 H 0.0 **** 0.06
28518 H 68.90793271928766 38.26452615844682 71.2685078020269 H 0.0 **** 0.06
28519 H 70.15998471902446 39.52394806329059 71.1491068531937 H 0.0 **** 0.06
28520 H 68.46357982295066 39.97973541726057 71.43832253601187 H 0.0 **** 0.06
28521 C 58.94973250302669 114.09855853404387 4.991503227597718 C 0.0 **** -0.24
28522 H 59.2592355410516 113.55743432199141 4.096845395359239 H 0.0 **** 0.06
28523 H 57.92670394960075 114.45231468616936 4.8668707833182765 H 0.0 **** 0.06
28524 H 59.613325555395384 114.94987297082872 5.147948749166474 H 0.0 **** 0.06
28525 H 59.00189452145434 113.43367321087563 5.853963539390804 H 0.0 **** 0.06
28526 C 115.29108344276369 104.04789268596764 121.29324553029828 C 0.0 **** -0.24
28527 H 116.0175307522398 104.54931853451305 121.93191093201129 H 0.0 **** 0.06
28528 H 115.20221696411244 104.58907363879797 120.34975879886244 H 0.0 **** 0.06
28529 H 114.32185595781186 104.02586092562714 121.7915203706832 H 0.0 **** 0.06
28530 H 115.62238412975984 103.02781767146072 121.0974191281109 H 0.0 **** 0.06
28531 C 89.0918385101977 113.69629157318279 101.99639586992924 C 0.0 **** -0.24
28532 H 89.62377987118518 114.50035324114718 102.50574093626881 H 0.0 **** 0.06
28533 H 89.122428585162 113.86625545198278 100.9204346142595 H 0.0 **** 0.06
28534 H 88.05588450651499 113.67651453453452 102.33315132799484 H 0.0 **** 0.06
28535 H 89.56791360715405 112.74300642096902 102.22799919879546 H 0.0 **** 0.06
28536 C 47.8447479943961 77.39377666225434 73.97523201403942 C 0.0 **** -0.24
28537 H 48.7715640601414 77.75659954413715 73.53192443146031 H 0.0 **** 0.06
28538 H 48.069274798807996 76.85874644228969 74.89782807574201 H 0.0 **** 0.06
28539 H 47.34630917435766 76.72121210361661 73.27722715711408 H 0.0 **** 0.06
28540 H 47.19184394427731 78.23854855897409 74.1939483918411 H 0.0 **** 0.06
28541 C 84.91753338768785 13.911206300071616 78.89326964002848 C 0.0 **** -0.24
28542 H 84.80505452669115 14.095507835938353 77.8251860567336 H 0.0 **** 0.06
28543 H 85.44055580076369 12.966465885816536 79.04586159536498 H 0.0 **** 0.06
28544 H 83.9324580764181 13.860489115382897 79.35799813369866 H 0.0 **** 0.06
28545 H 85.4907716923957 14.721210964119397 79.34407049386775 H 0.0 **** 0.06
28546 C 25.392078218022675 3.751543034350604 13.222074269346422 C 0.0 **** -0.24
28547 H 25.083779895713292 4.795383952508942 13.171464372491926 H 0.0 **** 0.06
28548 H 24.531622585264756 3.108697973122281 13.036638415615073 H 0.0 **** 0.06
28549 H 25.79678341996484 3.5395881317551297 14.211641821213561 H 0.0 **** 0.06
28550 H 26.15767056552255 3.561963479019747 12.469124650170386 H 0.0 **** 0.06
28551 C 0.8630553989485747 46.338542401987354 7.458820226005571 C 0.0 **** -0.24
28552 H 0.5945481475497729 46.11145993350759 6.427508201891925 H 0.0 **** 0.06
28553 H 0.09038008807706888 46.96341562192409 7.906304786306237 H 0.0 **** 0.06
28554 H 1.8157944621282525 46.868457889105194 7.478237421258967 H 0.0 **** 0.06
28555 H 0.9522211563767655 45.41096585801539 8.023909889786296 H 0.0 **** 0.06
28556 C 82.91507079613626 32.503317617042114 10.872483497801085 C 0.0 **** -0.24
28557 H 81.96781879620002 32.39798861891214 10.343700391270815 H 0.0 **** 0.06
28558 H 83.58203814468646 31.68777691747718 10.589980144344068 H 0.0 **** 0.06
28559 H 82.73595896083998 32.46964203745148 11.947200224237193 H 0.0 **** 0.06
28560 H 83.37372655956977 33.45628242992544 10.61045099372646 H 0.0 **** 0.06
28561 C 4.4627894358422395 66.91880806227721 77.90098401386922 C 0.0 **** -0.24
28562 H 3.6511033135402613 67.12930857746537 77.2030016181352 H 0.0 **** 0.06
28563 H 4.082644347404425 66.96015939600835 78.92179051716391 H 0.0 **** 0.06
28564 H 5.2510540900118485 67.66056966180122 77.77483862487861 H 0.0 **** 0.06
28565 H 4.8638998638624 65.9253477191215 77.70167001259551 H 0.0 **** 0.06
28566 C 87.0584271262864 19.844074589945933 94.04863089849806 C 0.0 **** -0.24
28567 H 87.22364485649067 19.30492453101698 94.98188086022006 H 0.0 **** 0.06
28568 H 86.60164308775583 19.17550332031442 93.31961246712129 H 0.0 **** 0.06
28569 H 88.01266404120588 20.204367198362718 93.6639514347579 H 0.0 **** 0.06
28570 H 86.39681070030417 20.69106727298805 94.23100207217902 H 0.0 **** 0.06
28571 C 22.874452970030624 8.08688067242565 1.5471616452711316 C 0.0 **** -0.24
28572 H 22.883391128557278 9.079585921310041 1.9985468394259698 H 0.0 **** 0.06
28573 H 21.85029404096089 7.717056441862752 1.5040266957303317 H 0.0 **** 0.06
28574 H 23.48122017295863 7.409714721603649 2.1475197988858667 H 0.0 **** 0.06
28575 H 23.28429607316105 8.144163995957229 0.5388351239017766 H 0.0 **** 0.06
28576 C 119.95548221726848 106.21376146494131 107.85944315650102 C 0.0 **** -0.24
28577 H 120.06652564114547 105.39245849819648 107.15171022338421 H 0.0 **** 0.06
28578 H 119.81449049715619 105.81051033223434 108.8635099516921 H 0.0 **** 0.06
28579 H 119.08913071610252 106.81524625635456 107.58445544092956 H 0.0 **** 0.06
28580 H 120.85047253826237 106.83431823160487 107.83950163236793 H 0.0 **** 0.06
28581 C 105.3121479146308 116.33220134342642 71.74740081987383 C 0.0 **** -0.24
28582 H 106.22463597792861 116.9153593401403 71.87219033954602 H 0.0 **** 0.06
28583 H 105.56027689088216 115.2701768196059 71.72398805908114 H 0.0 **** 0.06
28584 H 104.82628073478477 116.612966865949 70.81374303934936 H 0.0 **** 0.06
28585 H 104.63894827666809 116.52992188961699 72.58201690238872 H 0.0 **** 0.06
28586 C 87.47497679551873 50.22420139913643 45.8812779444325 C 0.0 **** -0.24
28587 H 87.53510690186445 49.92702188476437 44.83425462067339 H 0.0 **** 0.06
28588 H 86.4510541146118 50.10316592298213 46.235335713820774 H 0.0 **** 0.06
28589 H 87.7731384435528 51.267584980371595 45.98010314063322 H 0.0 **** 0.06
28590 H 88.14159092926948 49.598101244663155 46.47501135809324 H 0.0 **** 0.06
28591 C 106.26027457017844 42.31862219194065 22.829530406711797 C 0.0 **** -0.24
28592 H 106.39387652525232 43.40032932636987 22.861048152255336 H 0.0 **** 0.06
28593 H 106.19391261898468 41.991049160909 21.792626813463528 H 0.0 **** 0.06
28594 H 105.34446024698033 42.05060845058824 23.35608892461555 H 0.0 **** 0.06
28595 H 107.1106852083644 41.83524113955269 23.310125473736406 H 0.0 **** 0.06
28596 C 73.06368111907955 45.674946363447305 62.63240566398398 C 0.0 **** -0.24
28597 H 72.08733368426726 45.26667357308139 62.37207871085969 H 0.0 **** 0.06
28598 H 73.40630612389782 46.33494592731043 61.83580803616065 H 0.0 **** 0.06
28599 H 73.77572046093383 44.85942682802508 62.760600884599235 H 0.0 **** 0.06
28600 H 72.98583725864142 46.23784020094055 63.562119030689836 H 0.0 **** 0.06
28601 C 114.3561372943145 81.82161468952245 23.607147832390837 C 0.0 **** -0.24
28602 H 115.3889213888238 81.63422542389375 23.902726017050924 H 0.0 **** 0.06
28603 H 113.88907359733629 82.49422154103922 24.326146178872023 H 0.0 **** 0.06
28604 H 113.8088117197345 80.878537162617 23.58292587555391 H 0.0 **** 0.06
28605 H 114.3391120078819 82.27704899635003 22.617284291488176 H 0.0 **** 0.06
28606 C 86.09063909338585 119.50775723028968 44.14384680605405 C 0.0 **** -0.24
28607 H 85.35250265912936 119.76208975496371 44.90529658713454 H 0.0 **** 0.06
28608 H 85.76087692220085 118.62255174225459 43.6001563849562 H 0.0 **** 0.06
28609 H 87.04921776538129 119.30521518412466 44.622266931137965 H 0.0 **** 0.06
28610 H 86.19920619757832 120.34212489548943 43.45075379268999 H 0.0 **** 0.06
28611 C 77.73733984607358 30.775408098655916 106.4888476090145 C 0.0 **** -0.24
28612 H 78.64845016565744 31.16704957386486 106.94144244237563 H 0.0 **** 0.06
28613 H 77.34698695197545 31.499560708219732 105.77353525467444 H 0.0 **** 0.06
28614 H 76.99442462171297 30.595582469996202 107.26675950276203 H 0.0 **** 0.06
28615 H 77.95959955194462 29.83945554851266 105.97588698651793 H 0.0 **** 0.06
28616 C 90.91735396950833 54.78697555579879 49.8320514536274 C 0.0 **** -0.24
28617 H 90.8983494349365 55.244100432713395 48.84210252987454 H 0.0 **** 0.06
28618 H 89.93089810319975 54.38629773744762 50.065791155589096 H 0.0 **** 0.06
28619 H 91.191068625415 55.53789473669593 50.573461476146804 H 0.0 **** 0.06
28620 H 91.64986733341496 53.98009363574809 49.844575454037766 H 0.0 **** 0.06
28621 C 87.92290162891248 41.22040217633045 27.840951061440528 C 0.0 **** -0.24
28622 H 86.96243778418054 41.435400278806554 28.309696372505535 H 0.0 **** 0.06
28623 H 87.80404545570667 40.40512124471135 27.12736691312754 H 0.0 **** 0.06
28624 H 88.64415245610002 40.93306769062693 28.60573027245964 H 0.0 **** 0.06
28625 H 88.27957972420177 42.11033722814287 27.320177984795542 H 0.0 **** 0.06
28626 C 82.33875094071874 30.2374771320589 57.52511371563946 C 0.0 **** -0.24
28627 H 82.27106069501855 29.164799992565918 57.71007854491717 H 0.0 **** 0.06
28628 H 83.33168697128869 30.47743062556455 57.14304491851664 H 0.0 **** 0.06
28629 H 82.16599709036569 30.778450697730193 58.455226509836166 H 0.0 **** 0.06
28630 H 81.58698110264845 30.52760790558719 56.79074228128786 H 0.0 **** 0.06
28631 C 56.41992670006609 116.49887964182233 69.4461515676274 C 0.0 **** -0.24
28632 H 56.55061697691311 115.88496169925517 68.55579385127658 H 0.0 **** 0.06
28633 H 57.384641434357015 116.9060053263706 69.75109313680517 H 0.0 **** 0.06
28634 H 56.01255995788042 115.8878522130235 70.25254417020341 H 0.0 **** 0.06
28635 H 55.73267315172206 117.31642294029848 69.22747905602296 H 0.0 **** 0.06
28636 C 107.25584166546247 25.185190408672668 34.89982225511537 C 0.0 **** -0.24
28637 H 108.17835486997325 25.722173278858406 34.67860985571994 H 0.0 **** 0.06
28638 H 107.47781954586748 24.128153750543902 35.0496872157014 H 0.0 **** 0.06
28639 H 106.56150853011059 25.295998928138374 34.066206537588045 H 0.0 **** 0.06
28640 H 106.8056837158988 25.594435677150102 35.804785411451945 H 0.0 **** 0.06
28641 C 46.44934676927578 79.5931970483993 88.25876817109184 C 0.0 **** -0.24
28642 H 46.27383454132442 80.13001117937341 89.19129870824662 H 0.0 **** 0.06
28643 H 46.88312708172832 80.27371125133345 87.52443628212 H 0.0 **** 0.06
28644 H 45.50405943485214 79.20532092102502 87.8796994801935 H 0.0 **** 0.06
28645 H 47.136425461760155 78.7667041781819 88.43852495203527 H 0.0 **** 0.06
28646 C 88.73673447431759 89.85366018964237 32.07996956541953 C 0.0 **** -0.24
28647 H 87.66285806939575 89.85373693422534 32.267854138847596 H 0.0 **** 0.06
28648 H 89.23593883495423 90.46982956372844 32.82656874600215 H 0.0 **** 0.06
28649 H 88.93116176636713 90.25608220186274 31.085885729559124 H 0.0 **** 0.06
28650 H 89.11549069329706 88.832407092539 32.13924914862568 H 0.0 **** 0.06
28651 C 35.706004885168426 66.6976711063287 38.90530195376169 C 0.0 **** -0.24
28652 H 34.67031882779111 67.03657535392213 38.9342578489923 H 0.0 **** 0.06
28653 H 35.83754476785822 66.00286796260576 38.07634240638393 H 0.0 **** 0.06
28654 H 35.9499728175536 66.1960799023075 39.84212535083307 H 0.0 **** 0.06
28655 H 36.364828047809965 67.555640337326 38.769873041464194 H 0.0 **** 0.06
28656 C 42.10976359279837 61.57495060817362 61.45958308222449 C 0.0 **** -0.24
28657 H 43.0732418305993 61.88047113241339 61.05249711844092 H 0.0 **** 0.06
28658 H 41.77138799436057 62.31368349908578 62.1867872159717 H 0.0 **** 0.06
28659 H 42.211764831375156 60.60530004030625 61.94705478518171 H 0.0 **** 0.06
28660 H 41.381192787126295 61.501163512116904 60.651565611418356 H 0.0 **** 0.06
28661 C 32.90656120797951 113.34495169069689 79.11996793796698 C 0.0 **** -0.24
28662 H 33.3733585954931 114.21456145845522 78.6566470793143 H 0.0 **** 0.06
28663 H 31.915398940875463 113.61614108326873 79.48503897917351 H 0.0 **** 0.06
28664 H 33.52016425618453 113.00342606702156 79.95289687302807 H 0.0 **** 0.06
28665 H 32.81721677644961 112.54629495934896 78.38367375800215 H 0.0 **** 0.06
28666 C 97.52053311685134 45.16319311979504 80.15259254509186 C 0.0 **** -0.24
28667 H 96.61797045933963 44.82600141077515 80.66202999500834 H 0.0 **** 0.06
28668 H 97.3911035495369 45.054257019014216 79.07540310507127 H 0.0 **** 0.06
28669 H 98.36866705264939 44.561421487966186 80.47923433992 H 0.0 **** 0.06
28670 H 97.70286568366726 46.20995075290634 80.39253281586076 H 0.0 **** 0.06
28671 C 11.508806104708412 86.91846380553542 48.94480732464386 C 0.0 **** -0.24
28672 H 11.673047228637984 87.55328067729408 48.07368244155021 H 0.0 **** 0.06
28673 H 10.528658374650888 86.44761670485119 48.87047325729373 H 0.0 **** 0.06
28674 H 11.555199786856662 87.52455060281073 49.84940310840368 H 0.0 **** 0.06
28675 H 12.27934436848858 86.14895926896901 48.982564923506644 H 0.0 **** 0.06
28676 C 65.56652360771054 47.82718114987807 102.76302256692847 C 0.0 **** -0.24
28677 H 65.61258337827164 48.87126617218351 102.45489103411253 H 0.0 **** 0.06
28678 H 65.85153842180353 47.18894155250854 101.92610503696238 H 0.0 **** 0.06
28679 H 64.55046720892841 47.58509727690131 103.07538124951742 H 0.0 **** 0.06
28680 H 66.251703815605 47.66344497138442 103.59431290875571 H 0.0 **** 0.06
28681 C 86.15379404371629 45.06059480444202 54.881366122313416 C 0.0 **** -0.24
28682 H 85.61705074368152 45.98334244321495 55.100855378348875 H 0.0 **** 0.06
28683 H 85.45260697729555 44.22481185032774 54.87648775240297 H 0.0 **** 0.06
28684 H 86.91364878830643 44.89181819721455 55.644593066645236 H 0.0 **** 0.06
28685 H 86.6310248196803 45.14104476102153 53.90508763862997 H 0.0 **** 0.06
28686 C 44.175902905291025 43.28130153128714 23.79742476031553 C 0.0 **** -0.24
28687 H 43.09295280684023 43.184647005205875 23.873812638556025 H 0.0 **** 0.06
28688 H 44.50298906371307 44.15472016323946 24.362590870213495 H 0.0 **** 0.06
28689 H 44.457033921754885 43.3990009920127 22.751146456560157 H 0.0 **** 0.06
28690 H 44.65023143943216 42.38742426770395 24.204018016974892 H 0.0 **** 0.06
28691 C 3.490969320833514 37.508105256610975 31.51014317269238 C 0.0 **** -0.24
28692 H 3.7664960959810685 38.0006754027263 30.57760642813807 H 0.0 **** 0.06
28693 H 2.965016417802758 38.21425481891805 32.152798973615006 H 0.0 **** 0.06
28694 H 4.39124778375276 37.1567737451162 32.01562617167542 H 0.0 **** 0.06
28695 H 2.841070869358262 36.659718816662405 31.294503172542733 H 0.0 **** 0.06
28696 C 26.60205353649414 50.13937318704805 2.5567938442987046 C 0.0 **** -0.24
28697 H 25.907306058604178 49.505758644928335 2.0060755444492706 H 0.0 **** 0.06
28698 H 26.2888810354643 51.180297058052844 2.4715257305461478 H 0.0 **** 0.06
28699 H 27.60359500106034 50.02603743409236 2.1437312042218437 H 0.0 **** 0.06
28700 H 26.606751511390655 49.84565705776714 3.60617407065614 H 0.0 **** 0.06
28701 C 85.91809913433104 108.6114453312828 113.13836524427609 C 0.0 **** -0.24
28702 H 85.85477775748672 107.71329356874256 112.52441580258306 H 0.0 **** 0.06
28703 H 86.9541385996219 108.94878841083002 113.18145879459149 H 0.0 **** 0.06
28704 H 85.56541326621033 108.389130850783 114.14486462813778 H 0.0 **** 0.06
28705 H 85.29877454459205 109.39378328198183 112.70051199302765 H 0.0 **** 0.06
28706 C 53.884618723564905 95.6759277472828 73.25231421858422 C 0.0 **** -0.24
28707 H 53.82544833339167 94.62543793173683 73.53573810626276 H 0.0 **** 0.06
28708 H 53.10052053498537 96.23453130935906 73.76213687980643 H 0.0 **** 0.06
28709 H 53.75488177277834 95.76813130140084 72.17283327988048 H 0.0 **** 0.06
28710 H 54.85904552041327 96.07455150959379 73.53592959937515 H 0.0 **** 0.06
28711 C 119.5134768035565 3.374402942099806 46.29578152765156 C 0.0 **** -0.24
28712 H 118.73607935568634 3.794273143693232 46.93443509102291 H 0.0 **** 0.06
28713 H 119.4478547731835 3.8207733911210084 45.30277982365768 H 0.0 **** 0.06
28714 H 119.37653008403636 2.2959518641313252 46.21944037378829 H 0.0 **** 0.06
28715 H 120.49152707218273 3.5877663280012655 46.7264842550289 H 0.0 **** 0.06
28716 C 24.220335525262442 68.67617490117476 28.65395678791731 C 0.0 **** -0.24
28717 H 24.007040705759607 68.32894132246795 29.663932619511684 H 0.0 **** 0.06
28718 H 25.256482944990353 68.44745937358198 28.40255488355143 H 0.0 **** 0.06
28719 H 24.06248392045876 69.75351471984166 28.598993684444338 H 0.0 **** 0.06
28720 H 23.555382222707294 68.17543963663886 27.949592194174556 H 0.0 **** 0.06
28721 C 108.98228448414699 43.49240403319902 66.26213728041839 C 0.0 **** -0.24
28722 H 108.37359808125376 42.831922782187576 65.64478284762887 H 0.0 **** 0.06
28723 H 109.72043033512944 43.996502921392846 65.63720430688417 H 0.0 **** 0.06
28724 H 109.49287149017528 42.90567811160014 67.02650224064385 H 0.0 **** 0.06
28725 H 108.34285250230928 44.23323362375004 66.74071570826845 H 0.0 **** 0.06
28726 C 120.60207147089056 1.2238789667068204 58.65747841106158 C 0.0 **** -0.24
28727 H 119.95900322290628 1.534290902563356 57.833015026319764 H 0.0 **** 0.06
28728 H 120.41765732067682 1.8633892737491067 59.52115958106193 H 0.0 **** 0.06
28729 H 121.6454897559156 1.311197357620614 58.35556140809734 H 0.0 **** 0.06
28730 H 120.38423444822254 0.18821818501344012 58.917966212460406 H 0.0 **** 0.06
28731 C 15.64746218126686 36.93246834430926 96.81086524208231 C 0.0 **** -0.24
28732 H 16.35441565974523 37.132693449553045 96.00482622477244 H 0.0 **** 0.06
28733 H 14.857759919537319 37.68356660410248 96.79573693182539 H 0.0 **** 0.06
28734 H 16.16832526370779 36.9717438922838 97.76841435362522 H 0.0 **** 0.06
28735 H 15.21262613769657 35.94311024069029 96.67363838073749 H 0.0 **** 0.06
28736 C 14.079283718976981 91.50474470158164 75.89608912748051 C 0.0 **** -0.24
28737 H 13.852532637616747 92.57056358638349 75.89911264404424 H 0.0 **** 0.06
28738 H 15.15767343560178 91.36318987184393 75.97310225875535 H 0.0 **** 0.06
28739 H 13.719694643670039 91.05988078384391 74.96840927764137 H 0.0 **** 0.06
28740 H 13.587330053666278 91.0261332778249 76.74312504800994 H 0.0 **** 0.06
28741 C 97.59751561617824 12.299899860976439 100.94312699241789 C 0.0 **** -0.24
28742 H 96.55427468966039 12.254189098571963 100.6331061247717 H 0.0 **** 0.06
28743 H 97.64895209945732 12.465697479786698 102.0196629279236 H 0.0 **** 0.06
28744 H 98.09535769953501 13.118889058823314 100.42403347488323 H 0.0 **** 0.06
28745 H 98.09168974364772 11.359940194529063 100.69612310181174 H 0.0 **** 0.06
28746 C 38.145024004589885 114.00829716358322 33.36612525796818 C 0.0 **** -0.24
28747 H 38.8632922765681 113.2784087795784 32.992719628481666 H 0.0 **** 0.06
28748 H 37.42102129121449 113.50951325365185 34.00979113796126 H 0.0 **** 0.06
28749 H 37.62731936027242 114.47089006639294 32.525484508784075 H 0.0 **** 0.06
28750 H 38.6699912581536 114.77615269878982 33.93579136935176 H 0.0 **** 0.06
28751 C 111.40231940984194 120.42090540524435 72.7957555984184 C 0.0 **** -0.24
28752 H 110.91766218942561 120.63930073919653 73.7464852631509 H 0.0 **** 0.06
28753 H 111.54265927224364 119.34439395200866 72.69775586731782 H 0.0 **** 0.06
28754 H 112.37136720020611 120.91930432669665 72.75932673569272 H 0.0 **** 0.06
28755 H 110.7781597279475 120.78244123773436 71.97828530118275 H 0.0 **** 0.06
28756 C 51.09805933205834 48.83147464489605 12.988520904333747 C 0.0 **** -0.24
28757 H 50.6838180594791 49.19726142905354 12.048531875501666 H 0.0 **** 0.06
28758 H 52.186673003441875 48.843526905624785 12.934086068253848 H 0.0 **** 0.06
28759 H 50.75276303551137 47.8127764947551 13.16488324247318 H 0.0 **** 0.06
28760 H 50.76737823807656 49.473533507387074 13.804586177255604 H 0.0 **** 0.06
28761 C 29.600051391283642 39.19007290137512 98.84314192650663 C 0.0 **** -0.24
28762 H 29.247856088496633 39.663467653306725 97.92575918329666 H 0.0 **** 0.06
28763 H 30.26568219848437 38.36475374728548 98.59187511672056 H 0.0 **** 0.06
28764 H 28.7476053466159 38.812282170077594 99.40788704238136 H 0.0 **** 0.06
28765 H 30.139184186934415 39.92256107286744 99.44523089510682 H 0.0 **** 0.06
28766 C 102.84261969075939 106.59842866551082 0.04587515342275594 C 0.0 **** -0.24
28767 H 102.68360898129637 105.83149478651461 0.8041766570428024 H 0.0 **** 0.06
28768 H 102.47405824374363 106.24073918758364 -0.9159407691691683 H 0.0 **** 0.06
28769 H 103.90739500900307 106.81735671755663 -0.03119709670133375 H 0.0 **** 0.06
28770 H 102.30476483980848 107.50375548981742 0.32766167025837944 H 0.0 **** 0.06
28771 C 49.41489231050661 35.49185528320744 84.53845517578816 C 0.0 **** -0.24
28772 H 49.516672627920165 36.329261861678475 83.84802985091775 H 0.0 **** 0.06
28773 H 50.260247577797905 34.8142228244583 84.41329556370877 H 0.0 **** 0.06
28774 H 48.48725446616732 34.95876612922922 84.32970623033958 H 0.0 **** 0.06
28775 H 49.397269180059006 35.866083412629706 85.56198136196446 H 0.0 **** 0.06
28776 C 38.645891016705434 103.00477670415725 15.975647315298716 C 0.0 **** -0.24
28777 H 37.98468316701326 103.70653236554213 16.484841135656325 H 0.0 **** 0.06
28778 H 38.556371104625214 102.0218264679747 16.4396723434875 H 0.0 **** 0.06
28779 H 39.67538164191558 103.35270319303714 16.05556161217882 H 0.0 **** 0.06
28780 H 38.36473603289801 102.93831505414494 14.925198465139687 H 0.0 **** 0.06
28781 C 44.20382943741427 76.28068258985095 74.31062256936477 C 0.0 **** -0.24
28782 H 44.359679282760624 77.31559982361946 74.61768666555037 H 0.0 **** 0.06
28783 H 43.84935860905017 75.69936126944131 75.16138519386527 H 0.0 **** 0.06
28784 H 45.143709775534944 75.8645647702007 73.95007999042355 H 0.0 **** 0.06
28785 H 43.461561702624095 76.2477633779313 73.51289010651021 H 0.0 **** 0.06
28786 C 11.95694698429951 9.263550359554756 0.9737027917162067 C 0.0 **** -0.24
28787 H 12.851717357349727 8.641916312582367 1.0025854463063126 H 0.0 **** 0.06
28788 H 11.179641964501219 8.753767154247498 0.4033229253359423 H 0.0 **** 0.06
28789 H 12.19108842662708 10.21593764576022 0.4992132659674411 H 0.0 **** 0.06
28790 H 11.605293310317986 9.440132914994763 1.9897807300176567 H 0.0 **** 0.06
28791 C 76.11163971881172 78.3929274355169 68.63382288861544 C 0.0 **** -0.24
28792 H 76.27462127355074 78.47128595523122 69.70889688873672 H 0.0 **** 0.06
28793 H 77.04974184058801 78.13690640118762 68.14181400320547 H 0.0 **** 0.06
28794 H 75.7489439180718 79.34765603461074 68.25060977848926 H 0.0 **** 0.06
28795 H 75.37211711119369 77.6175019131341 68.4341163567222 H 0.0 **** 0.06
28796 C 80.59124606739391 50.22069597823636 76.1346676885968 C 0.0 **** -0.24
28797 H 80.13026288360814 49.34345654493128 75.68124340081042 H 0.0 **** 0.06
28798 H 80.11207612635476 50.428533991064896 77.09084842483665 H 0.0 **** 0.06
28799 H 80.468960080209 51.07759494361948 75.47192682731216 H 0.0 **** 0.06
28800 H 81.65354864117316 50.0322543997807 76.29239588957046 H 0.0 **** 0.06
28801 C 44.16314994863308 108.79850200652152 96.76125279781724 C 0.0 **** -0.24
28802 H 44.95257174214831 108.138845961421 97.12104057591205 H 0.0 **** 0.06
28803 H 44.03288587522289 108.65750650429311 95.6870131499814 H 0.0 **** 0.06
28804 H 44.43569125658283 109.83454832680951 96.96178801842535 H 0.0 **** 0.06
28805 H 43.23047099683794 108.56291797376957 97.27375378555641 H 0.0 **** 0.06
28806 C 75.01453455131954 4.219189936767151 71.21563717189767 C 0.0 **** -0.24
28807 H 75.84378578903471 4.899405268972004 71.01982693588766 H 0.0 **** 0.06
28808 H 74.07099900770064 4.731634392745548 71.0238832371021 H 0.0 **** 0.06
28809 H 75.04744461535526 3.8947251188819507 72.25520418789213 H 0.0 **** 0.06
28810 H 75.09635474797065 3.3512557481648173 70.56123986409403 H 0.0 **** 0.06
28811 C 31.542997392041087 48.60264624443833 121.96825270348984 C 0.0 **** -0.24
28812 H 31.48274576355712 48.23857221296109 122.993616999415 H 0.0 **** 0.06
28813 H 31.374601131185386 49.67956098135906 121.95419963060277 H 0.0 **** 0.06
28814 H 30.783897720273785 48.107966520777055 121.36224462342784 H 0.0 **** 0.06
28815 H 32.53080827800957 48.382533810499766 121.56251591654342 H 0.0 **** 0.06
28816 C 45.80479518706167 41.447527335258826 38.49051308127281 C 0.0 **** -0.24
28817 H 46.11430782694498 40.50596110335681 38.03763997664586 H 0.0 **** 0.06
28818 H 45.05537002278234 41.924767439499306 37.85902995499643 H 0.0 **** 0.06
28819 H 46.66899717153666 42.104775734267264 38.589511212686745 H 0.0 **** 0.06
28820 H 45.380505726982676 41.25460506391181 39.475871180762084 H 0.0 **** 0.06
28821 C 108.69334991694714 9.780495185921527 121.64597414796857 C 0.0 **** -0.24
28822 H 109.32738014239396 10.617516371482292 121.35523494691253 H 0.0 **** 0.06
28823 H 108.36972182440914 9.243650543734514 120.75464156216458 H 0.0 **** 0.06
28824 H 107.82045550736987 10.155017299531117 122.18159688924102 H 0.0 **** 0.06
28825 H 109.25502452630181 9.106390374233385 122.29341257682617 H 0.0 **** 0.06
28826 C 44.90449359131164 14.153447260616872 34.60120869078703 C 0.0 **** -0.24
28827 H 44.2409386716911 13.680179439139437 35.32635052458322 H 0.0 **** 0.06
28828 H 45.118889224000206 13.452192823478157 33.79480937861544 H 0.0 **** 0.06
28829 H 45.83497767858146 14.438256318193652 35.09273215511567 H 0.0 **** 0.06
28830 H 44.42193640930905 15.04097779776049 34.192591254109146 H 0.0 **** 0.06
28831 C 96.31185131437744 40.637985558293224 47.08759878918502 C 0.0 **** -0.24
28832 H 95.3967502037197 41.225850884582144 47.01432219562822 H 0.0 **** 0.06
28833 H 96.14158994477751 39.646762583978386 46.66589239882359 H 0.0 **** 0.06
28834 H 96.6001071843331 40.543060402692106 48.13511727086314 H 0.0 **** 0.06
28835 H 97.10854173708631 41.136090606216044 46.53595505734726 H 0.0 **** 0.06
28836 C 30.03184916295669 70.75566228415227 32.222393868786725 C 0.0 **** -0.24
28837 H 29.73551440833924 71.59469762611656 32.85120662870631 H 0.0 **** 0.06
28838 H 31.024908831300806 70.94108390145357 31.812381089651495 H 0.0 **** 0.06
28839 H 29.317363280160777 70.64226811422793 31.406678323924723 H 0.0 **** 0.06
28840 H 30.04982760729368 69.84294468125753 32.81884633071675 H 0.0 **** 0.06
28841 C 85.68264177789845 35.99903895046266 89.53338056515597 C 0.0 **** -0.24
28842 H 84.95271646307103 36.240098556543316 90.30573501286787 H 0.0 **** 0.06
28843 H 85.23358155942438 35.31842162565225 88.8088944027075 H 0.0 **** 0.06
28844 H 86.55004483266143 35.52249291772112 89.99013646146753 H 0.0 **** 0.06
28845 H 85.994082464689 36.91297631634801 89.02929205783354 H 0.0 **** 0.06
28846 C 9.23486068180523 105.04614736551173 51.78388124884043 C 0.0 **** -0.24
28847 H 9.874162419524907 105.73383762595532 51.22930881653744 H 0.0 **** 0.06
28848 H 8.876045120520246 104.26463555288578 51.11471627391394 H 0.0 **** 0.06
28849 H 8.38522390485258 105.59262076606592 52.19458352484261 H 0.0 **** 0.06
28850 H 9.805004545197676 104.59649688512846 52.59684038213996 H 0.0 **** 0.06
28851 C 77.28216822719202 121.77795759127439 51.206875662440694 C 0.0 **** -0.24
28852 H 76.82950526982148 121.0962192680929 50.487569623607754 H 0.0 **** 0.06
28853 H 76.6733486316142 121.8092549689577 52.110473639891524 H 0.0 **** 0.06
28854 H 77.34207255866278 122.77641924388845 50.773403696000486 H 0.0 **** 0.06
28855 H 78.28506970402935 121.43010760492241 51.45558669026465 H 0.0 **** 0.06
28856 C 118.36823268986149 13.14400858014298 76.25886265457405 C 0.0 **** -0.24
28857 H 118.96175527307817 12.930341881309658 75.36932981384135 H 0.0 **** 0.06
28858 H 117.58154460931699 13.855532083255497 76.00855827882555 H 0.0 **** 0.06
28859 H 119.01067249443321 13.567577952132751 77.03106226094962 H 0.0 **** 0.06
28860 H 117.91955450032492 12.220352657271746 76.62567977230094 H 0.0 **** 0.06
28861 C 72.22815369821205 112.0200762051727 70.6005096777032 C 0.0 **** -0.24
28862 H 72.07243447359781 112.09930995506443 71.67682641275917 H 0.0 **** 0.06
28863 H 71.58405985022654 112.7345348678142 70.0867742142922 H 0.0 **** 0.06
28864 H 71.98543752906554 111.01014884522033 70.27154210894702 H 0.0 **** 0.06
28865 H 73.27129242078908 112.23785415991887 70.36869819441281 H 0.0 **** 0.06
28866 C 106.42332145090717 85.5592778783232 116.92309387266599 C 0.0 **** -0.24
28867 H 107.17848732837996 85.39502074307833 116.1540969620655 H 0.0 **** 0.06
28868 H 106.55141681770928 86.55342866321425 117.35185365338117 H 0.0 **** 0.06
28869 H 106.5324094967695 84.80811859861433 117.7057717748315 H 0.0 **** 0.06
28870 H 105.43015380350298 85.47998197082083 116.479645589457 H 0.0 **** 0.06
28871 C 58.0722098337848 66.00148602016708 77.5729733986243 C 0.0 **** -0.24
28872 H 58.95583667671167 65.89267622799053 78.20328226113685 H 0.0 **** 0.06
28873 H 57.190713768730376 66.12635042887271 78.20156680980242 H 0.0 **** 0.06
28874 H 57.9553709986842 65.11061724546573 76.95500438467226 H 0.0 **** 0.06
28875 H 58.19027293502637 66.87465830063528 76.93181946594362 H 0.0 **** 0.06
28876 C 18.522871518892146 12.249941765762259 25.145410228524014 C 0.0 **** -0.24
28877 H 18.202806781165066 13.056117323415776 25.804682252554983 H 0.0 **** 0.06
28878 H 17.672927398251545 11.606785969750746 24.91888053465499 H 0.0 **** 0.06
28879 H 19.299934000320206 11.665017960268017 25.638093903976937 H 0.0 **** 0.06
28880 H 18.917426238227165 12.671273475753708 24.221428503700537 H 0.0 **** 0.06
28881 C 93.21208084884321 42.29291534384884 96.4745099007857 C 0.0 **** -0.24
28882 H 93.67396688903946 41.509584673778456 95.87485550960986 H 0.0 **** 0.06
28883 H 93.84855758548977 42.51864757008124 97.3308378313101 H 0.0 **** 0.06
28884 H 92.23677404768327 41.95452288243186 96.82614520320496 H 0.0 **** 0.06
28885 H 93.08743717574703 43.189176375548584 95.8673870064359 H 0.0 **** 0.06
28886 C 25.990050019062068 29.29357456556133 90.83213454895068 C 0.0 **** -0.24
28887 H 25.45641504249042 30.16175422474889 91.22123481930936 H 0.0 **** 0.06
28888 H 25.271094179847154 28.55379859495219 90.48022385234697 H 0.0 **** 0.06
28889 H 26.601715074064458 28.859307404569464 91.62242119090027 H 0.0 **** 0.06
28890 H 26.62979054438901 29.60196541655464 90.00511442504111 H 0.0 **** 0.06
28891 C 67.16953314626983 77.08939213035845 16.075392656993987 C 0.0 **** -0.24
28892 H 67.28685214193172 76.02642570455112 16.287330823725764 H 0.0 **** 0.06
28893 H 67.68892174255836 77.67120200892 16.83729023324983 H 0.0 **** 0.06
28894 H 66.11018923822678 77.34595194518107 16.08200125488359 H 0.0 **** 0.06
28895 H 67.59113274987055 77.31399848925102 15.095910213130896 H 0.0 **** 0.06
28896 C 98.56311610530264 8.805574885111795 21.64449659901007 C 0.0 **** -0.24
28897 H 98.94519678318755 9.252247024140786 22.562534994560167 H 0.0 **** 0.06
28898 H 97.47404428995259 8.862363677953525 21.639128961694666 H 0.0 **** 0.06
28899 H 98.87387814138629 7.762713319064062 21.592163324432306 H 0.0 **** 0.06
28900 H 98.96031119366768 9.347444815548911 20.78588248465573 H 0.0 **** 0.06
28901 C 94.1472290851849 106.61021651675176 21.37483072304633 C 0.0 **** -0.24
28902 H 95.08370740290721 107.13149853020218 21.17185620872118 H 0.0 **** 0.06
28903 H 93.96283680765401 106.6018600180276 22.44905685479094 H 0.0 **** 0.06
28904 H 94.21530822473761 105.58593738497615 21.00900345124259 H 0.0 **** 0.06
28905 H 93.32992262160431 107.12448215218552 20.869997001753916 H 0.0 **** 0.06
28906 C 65.52077270824793 61.556417031068555 34.40258247246942 C 0.0 **** -0.24
28907 H 64.60584010734567 61.2514765139588 34.91027995300374 H 0.0 **** 0.06
28908 H 65.82884276154107 62.53704164708967 34.767143040929 H 0.0 **** 0.06
28909 H 65.34142100253439 61.60791749378891 33.329068732579515 H 0.0 **** 0.06
28910 H 66.30778118193928 60.82933549392114 34.60443704200463 H 0.0 **** 0.06
28911 C 39.92483209780508 57.28177116797023 108.94628761493752 C 0.0 **** -0.24
28912 H 40.90137731160033 57.443918854020346 109.40133886623678 H 0.0 **** 0.06
28913 H 39.79461824759355 57.96994035724274 108.10998757846457 H 0.0 **** 0.06
28914 H 39.14459558516589 57.458233648919354 109.68629915143475 H 0.0 **** 0.06
28915 H 39.8583430466127 56.255116926391445 108.5858428649617 H 0.0 **** 0.06
28916 C 38.288947218674096 13.46314440855275 74.0557416355241 C 0.0 **** -0.24
28917 H 38.3769214313767 14.291442485622184 74.75952499681887 H 0.0 **** 0.06
28918 H 38.23612978405175 12.523650141042054 74.6063640089103 H 0.0 **** 0.06
28919 H 39.15855482553714 13.450833699029687 73.39817397933297 H 0.0 **** 0.06
28920 H 37.3845230670945 13.587411656477144 73.4600464584139 H 0.0 **** 0.06
28921 C 41.88014813564115 112.06914606184935 116.67918055296784 C 0.0 **** -0.24
28922 H 42.63089948580708 112.31991284268722 115.93043526456296 H 0.0 **** 0.06
28923 H 41.04754553283027 111.55291981157839 116.19991489975845 H 0.0 **** 0.06
28924 H 41.518884565632305 112.98291057815561 117.15019873535078 H 0.0 **** 0.06
28925 H 42.3236425746571 111.42064998268302 117.43482442028136 H 0.0 **** 0.06
28926 C 65.02958426174968 88.80657578055309 78.82534283420023 C 0.0 **** -0.24
28927 H 65.59202507237845 89.30039166079868 79.61854420219902 H 0.0 **** 0.06
28928 H 65.2099100435309 87.73176540083873 78.86673684474204 H 0.0 **** 0.06
28929 H 65.35293834393255 89.19292618851142 77.85808345740674 H 0.0 **** 0.06
28930 H 63.96645855919038 89.00333177512198 78.95725132781018 H 0.0 **** 0.06
28931 C 21.84192071395404 7.496981762927103 80.3290715014906 C 0.0 **** -0.24
28932 H 21.555608826837982 7.963961121761926 79.38688527163436 H 0.0 **** 0.06
28933 H 22.19683951573569 8.261722366756413 81.0203070691031 H 0.0 **** 0.06
28934 H 22.636256439604523 6.772822423130336 80.14928520553593 H 0.0 **** 0.06
28935 H 20.978788642151812 6.990377478321694 80.76003114445157 H 0.0 **** 0.06
28936 C 72.3091878635255 30.053036600878187 78.7772802527441 C 0.0 **** -0.24
28937 H 72.2160321883267 29.046690156145303 78.36799303283928 H 0.0 **** 0.06
28938 H 72.29666849693754 30.005009909310104 79.86687647128736 H 0.0 **** 0.06
28939 H 71.47674459504347 30.66474185566014 78.43064215521193 H 0.0 **** 0.06
28940 H 73.24889106375406 30.49503296817494 78.44380263757344 H 0.0 **** 0.06
28941 C 54.18862973963345 35.455105206920905 43.85130785063873 C 0.0 **** -0.24
28942 H 54.92361837165458 35.701211783362794 44.61636031975215 H 0.0 **** 0.06
28943 H 53.79265931985936 34.456305771879585 44.03512637196175 H 0.0 **** 0.06
28944 H 54.662613639563325 35.484204136233416 42.87011997284071 H 0.0 **** 0.06
28945 H 53.37476348114448 36.180445955467675 43.88252831110452 H 0.0 **** 0.06
28946 C 39.259909913722254 98.28079917796208 19.8718297386877 C 0.0 **** -0.24
28947 H 39.25973016430578 97.75850257580626 18.915076186297444 H 0.0 **** 0.06
28948 H 39.356094249817374 99.35334942016524 19.698683085102246 H 0.0 **** 0.06
28949 H 40.09829928743886 97.93382434171318 20.474717601863865 H 0.0 **** 0.06
28950 H 38.326783100239254 98.07922002594728 20.396495577887535 H 0.0 **** 0.06
28951 C 19.644057408817417 47.44372844496053 55.87665181206344 C 0.0 **** -0.24
28952 H 19.411867089061992 48.47227383628102 55.59843206984033 H 0.0 **** 0.06
28953 H 20.40369300595402 47.047862257838375 55.202104639700366 H 0.0 **** 0.06
28954 H 18.742540401222943 46.83554105734669 55.805953233526196 H 0.0 **** 0.06
28955 H 20.019104958304872 47.42141437872799 56.89956457186648 H 0.0 **** 0.06
28956 C 47.646252469461004 104.98719395705962 78.07693533109762 C 0.0 **** -0.24
28957 H 48.30960789407199 104.97439586704974 78.94120604484817 H 0.0 **** 0.06
28958 H 46.93883895339101 104.16041872340031 78.14997660384483 H 0.0 **** 0.06
28959 H 48.23594184632957 104.88157778924204 77.16577022579781 H 0.0 **** 0.06
28960 H 47.10236056238938 105.9314260326924 78.04975976326523 H 0.0 **** 0.06
28961 C 93.46364735828354 91.5755027548058 17.728442184364013 C 0.0 **** -0.24
28962 H 92.62708737404546 92.01249066427079 18.274211475950608 H 0.0 **** 0.06
28963 H 93.08382367508273 90.9173560205337 16.94689181307919 H 0.0 **** 0.06
28964 H 94.08570669606803 91.00204926516724 18.415573464742494 H 0.0 **** 0.06
28965 H 94.05866980180684 92.37008871324596 17.277807524073893 H 0.0 **** 0.06
28966 C 32.52186389491973 110.03384883383387 68.36111125004166 C 0.0 **** -0.24
28967 H 32.630315531822674 110.89092094177136 69.02560335775888 H 0.0 **** 0.06
28968 H 33.40616935331414 109.94996003050173 67.72840142415089 H 0.0 **** 0.06
28969 H 31.63860689886829 110.16834917097952 67.73579778365979 H 0.0 **** 0.06
28970 H 32.41097417869847 109.12594033135582 68.95477849943447 H 0.0 **** 0.06
28971 C 113.3163904314543 121.92108225911434 95.56842386646758 C 0.0 **** -0.24
28972 H 113.74081013806665 122.451889114439 94.71560900722613 H 0.0 **** 0.06
28973 H 112.27657134088247 121.67106414898862 95.3592342426885 H 0.0 **** 0.06
28974 H 113.36724659749689 122.55533948411204 96.45269841665055 H 0.0 **** 0.06
28975 H 113.88301697598229 121.00597653641259 95.74486674303449 H 0.0 **** 0.06
28976 C 72.1556052128208 95.37789333027015 60.86381721968138 C 0.0 **** -0.24
28977 H 71.37017362352643 94.73721121337798 60.46422903915942 H 0.0 **** 0.06
28978 H 73.07503505555445 95.21942481573018 60.30057162367655 H 0.0 **** 0.06
28979 H 72.32503873817606 95.13445560387811 61.91270161960625 H 0.0 **** 0.06
28980 H 71.85149327848367 96.42098035007331 60.77830397913647 H 0.0 **** 0.06
28981 C 102.05464853548332 67.50891300667263 17.506479636846393 C 0.0 **** -0.24
28982 H 101.25549554604092 68.09509511679232 17.959669593052297 H 0.0 **** 0.06
28983 H 101.76738685158358 67.22330574403816 16.494567909946852 H 0.0 **** 0.06
28984 H 102.23057329176524 66.61309385882186 18.101591925101616 H 0.0 **** 0.06
28985 H 102.9669694639976 68.10543872058389 17.4701643169833 H 0.0 **** 0.06
28986 C 10.182854591976174 19.83017562864083 34.345634847192514 C 0.0 **** -0.24
28987 H 10.498958847776155 19.553351310835183 33.34072020838366 H 0.0 **** 0.06
28988 H 9.116052529285508 19.637386624935402 34.45686820837548 H 0.0 **** 0.06
28989 H 10.380467147770034 20.88971886773689 34.50994420041036 H 0.0 **** 0.06
28990 H 10.736730876821145 19.239982372911754 35.07614915067791 H 0.0 **** 0.06
28991 C 52.19012219828039 95.5472435226705 59.16973269058684 C 0.0 **** -0.24
28992 H 52.49182571143183 95.65307225556052 58.127654765824275 H 0.0 **** 0.06
28993 H 53.076665451528754 95.45171379403189 59.79751156948123 H 0.0 **** 0.06
28994 H 51.569295471182215 94.65852929148343 59.27971576481332 H 0.0 **** 0.06
28995 H 51.622389554528525 96.42643543047788 59.47459556344768 H 0.0 **** 0.06
28996 C 18.676954717945733 115.28834675520345 55.135637061079514 C 0.0 **** -0.24
28997 H 18.737205611077457 114.26456196999933 54.76784008793776 H 0.0 **** 0.06
28998 H 19.558184249867224 115.84225082779433 54.81168192253852 H 0.0 **** 0.06
28999 H 18.63138177949847 115.2806127770006 56.224189019045305 H 0.0 **** 0.06
29000 H 17.78125624233286 115.76533929482028 54.73808269643843 H 0.0 **** 0.06
29001 C 111.29938143052757 54.31354706251645 84.9575763355553 C 0.0 **** -0.24
29002 H 112.34784931591248 54.50833032733493 85.18270228100033 H 0.0 **** 0.06
29003 H 110.73273502882392 54.25689497237511 85.88729325854558 H 0.0 **** 0.06
29004 H 111.21282726418883 53.36870088033953 84.42059009362254 H 0.0 **** 0.06
29005 H 110.90486653258395 55.119133268121686 84.33931998082494 H 0.0 **** 0.06
29006 C 62.073171505259836 115.32994718724419 115.5607473632281 C 0.0 **** -0.24
29007 H 60.99684285500405 115.45934966283758 115.45345948327777 H 0.0 **** 0.06
29008 H 62.58804393717969 115.93945547272187 114.81749423748347 H 0.0 **** 0.06
29009 H 62.32978639889268 114.28051643538572 115.41075033336729 H 0.0 **** 0.06
29010 H 62.37926029696388 115.6381496789852 116.55984542475106 H 0.0 **** 0.06
29011 C 40.576762100299604 105.94470187813226 44.0846732723767 C 0.0 **** -0.24
29012 H 39.92275284778211 106.71951016563193 43.68703394211028 H 0.0 **** 0.06
29013 H 41.55714943789478 106.01939354898238 43.612799322989744 H 0.0 **** 0.06
29014 H 40.1473753848241 104.96494555346942 43.87716259690069 H 0.0 **** 0.06
29015 H 40.6810369623787 106.07553848474171 45.16194235982302 H 0.0 **** 0.06
29016 C 19.8799858446327 0.8396495274230809 41.36115454047433 C 0.0 **** -0.24
29017 H 20.51923406569233 0.9991005936413924 40.49298567410389 H 0.0 **** 0.06
29018 H 20.352382039984036 1.269514598894343 42.245176066402735 H 0.0 **** 0.06
29019 H 19.731279858108337 -0.22968785982617135 41.511338473151994 H 0.0 **** 0.06
29020 H 18.914859586704495 1.319813191874065 41.19467817014518 H 0.0 **** 0.06
29021 C 22.57097695210379 100.46188491279929 44.93505772132522 C 0.0 **** -0.24
29022 H 22.931136959542215 100.64376813709777 43.922394696948686 H 0.0 **** 0.06
29023 H 23.40057134540035 100.54771744320203 45.63742592511363 H 0.0 **** 0.06
29024 H 22.147126763736168 99.4594121060702 44.99481910174262 H 0.0 **** 0.06
29025 H 21.804841925332624 101.19580333068205 45.18509773151703 H 0.0 **** 0.06
29026 C 32.717288063271674 56.624007722084514 2.082092347377184 C 0.0 **** -0.24
29027 H 31.66724967982571 56.78524279360798 1.8386118335065333 H 0.0 **** 0.06
29028 H 33.32057049054978 57.406894454195225 1.6239452836219925 H 0.0 **** 0.06
29029 H 33.032446740147044 55.65239311609389 1.7017659222006074 H 0.0 **** 0.06
29030 H 32.84734573945937 56.650356965830724 3.164613905141266 H 0.0 **** 0.06
29031 C 57.94576282791846 104.2437215461049 42.40479240486732 C 0.0 **** -0.24
29032 H 58.99076391487807 104.5239506053747 42.278731151596645 H 0.0 **** 0.06
29033 H 57.655465879219804 103.55433277131931 41.6109693666921 H 0.0 **** 0.06
29034 H 57.3224139921891 105.13648592983446 42.357262422000275 H 0.0 **** 0.06
29035 H 57.81349996558643 103.75999979089966 43.37261001713733 H 0.0 **** 0.06
29036 C 105.64694732303062 28.758891407571298 16.305024411825684 C 0.0 **** -0.24
29037 H 104.89458105915077 27.997382975025005 16.101284367883864 H 0.0 **** 0.06
29038 H 106.2429002828687 28.458758027723206 17.16712891431692 H 0.0 **** 0.06
29039 H 105.15448596348196 29.708212793548654 16.516745619542917 H 0.0 **** 0.06
29040 H 106.29508952448046 28.87087650435484 15.436472114476516 H 0.0 **** 0.06
29041 C 105.20779202377116 21.36106255908595 34.83736485259881 C 0.0 **** -0.24
29042 H 105.61174379621673 20.50406869910688 35.377361778873286 H 0.0 **** 0.06
29043 H 105.39449846506113 21.23862185217041 33.769956229361846 H 0.0 **** 0.06
29044 H 105.6899391182775 22.272751185392394 35.18971005209007 H 0.0 **** 0.06
29045 H 104.13349355282344 21.427048072826892 35.0132509209494 H 0.0 **** 0.06
29046 C 71.06429651308747 21.94964489454452 35.09119388083127 C 0.0 **** -0.24
29047 H 71.54645439441356 21.120961159633197 35.61069193473506 H 0.0 **** 0.06
29048 H 71.77381891937335 22.40586767773297 34.399357937235635 H 0.0 **** 0.06
29049 H 70.73775217549144 22.69192006394678 35.818997049958 H 0.0 **** 0.06
29050 H 70.20245520553226 21.57946509195409 34.53746424479465 H 0.0 **** 0.06
29051 C 46.14106224978286 65.12741570653279 68.21687740054986 C 0.0 **** -0.24
29052 H 45.32647127724937 65.69730636713456 68.66461208804003 H 0.0 **** 0.06
29053 H 45.8575992549882 64.07710605528723 68.15490600486999 H 0.0 **** 0.06
29054 H 47.034573620309686 65.22743964027808 68.83271889487838 H 0.0 **** 0.06
29055 H 46.34364760312752 65.50951189610029 67.21708255980238 H 0.0 **** 0.06
29056 C 63.445360425076615 85.28300978371112 108.00284128374915 C 0.0 **** -0.24
29057 H 63.159145539640406 85.30124185290691 109.05486448231446 H 0.0 **** 0.06
29058 H 63.779175169979396 84.2805509329624 107.73542384841593 H 0.0 **** 0.06
29059 H 64.25615237355862 85.99284984521412 107.83429538670254 H 0.0 **** 0.06
29060 H 62.58897863923863 85.55766012721023 107.38815642584257 H 0.0 **** 0.06
29061 C 70.65846471022951 105.02386600346199 60.97065966613934 C 0.0 **** -0.24
29062 H 70.42349605552997 105.77112434354393 60.212599746089836 H 0.0 **** 0.06
29063 H 70.22453709495 104.06626143063147 60.68228585358406 H 0.0 **** 0.06
29064 H 70.24553038829913 105.33582582790268 61.92958688044939 H 0.0 **** 0.06
29065 H 71.74069547512471 104.92153536449905 61.05701474354635 H 0.0 **** 0.06
29066 C 17.691349618677275 83.53824665029805 7.812668582794657 C 0.0 **** -0.24
29067 H 16.96749308431172 84.34453998117553 7.933660092912959 H 0.0 **** 0.06
29068 H 17.492382349810054 83.00898740603915 6.879581806153141 H 0.0 **** 0.06
29069 H 17.606180458145783 82.84508167447382 8.649512448747686 H 0.0 **** 0.06
29070 H 18.697713342248306 83.95496741235257 7.786921059410929 H 0.0 **** 0.06
29071 C 118.38741738441132 114.9888834682228 69.7069511053518 C 0.0 **** -0.24
29072 H 118.84922033520925 114.02489570725402 69.92508838473256 H 0.0 **** 0.06
29073 H 119.14791085394131 115.76980727890476 69.73865086507163 H 0.0 **** 0.06
29074 H 117.6180793996685 115.19930226250669 70.45005953626742 H 0.0 **** 0.06
29075 H 117.9373460225125 114.95930962128078 68.71486680357467 H 0.0 **** 0.06
29076 C 112.13128599005663 111.9712101987212 94.01128298654297 C 0.0 **** -0.24
29077 H 112.10767393198594 113.05531292418846 93.89898027192163 H 0.0 **** 0.06
29078 H 111.13005492350194 111.56802321382986 93.85875841153523 H 0.0 **** 0.06
29079 H 112.476135092426 111.71720453835124 95.0142438136838 H 0.0 **** 0.06
29080 H 112.81192264192015 111.5446401777032 93.2752640802637 H 0.0 **** 0.06
29081 C 103.34269329755378 105.14037065166607 95.90757708903277 C 0.0 **** -0.24
29082 H 103.93109616638247 104.25828780950965 95.65483798217019 H 0.0 **** 0.06
29083 H 102.88470070781753 105.54175803392076 95.00305503965185 H 0.0 **** 0.06
29084 H 103.99217087250594 105.8946913746604 96.35207148940685 H 0.0 **** 0.06
29085 H 102.5639202296093 104.86663284067174 96.6190229543279 H 0.0 **** 0.06
29086 C 102.41530147193382 54.34027801098612 72.59461902004554 C 0.0 **** -0.24
29087 H 101.7331366543263 54.38463642935252 73.44328950448678 H 0.0 **** 0.06
29088 H 103.11442208219583 53.515433541737416 72.73340345538367 H 0.0 **** 0.06
29089 H 102.96806309963844 55.27761098255551 72.52390360325467 H 0.0 **** 0.06
29090 H 101.8453964906684 54.18381579951018 71.67878332864788 H 0.0 **** 0.06
29091 C 10.165260996199436 104.8948877056396 82.82244391171318 C 0.0 **** -0.24
29092 H 9.87063700463284 105.8984948920687 82.51556045835437 H 0.0 **** 0.06
29093 H 10.975828456150225 104.96076845357325 83.5490024522025 H 0.0 **** 0.06
29094 H 10.501958973060027 104.33242018158134 81.95178217008902 H 0.0 **** 0.06
29095 H 9.311684043443222 104.38950323976172 83.27463422306886 H 0.0 **** 0.06
29096 C 90.04454005142844 109.76418227617748 29.87948295204268 C 0.0 **** -0.24
29097 H 89.62103335927122 109.46637666413437 28.92073794937238 H 0.0 **** 0.06
29098 H 89.86744445785956 110.82774629548899 30.040286784843772 H 0.0 **** 0.06
29099 H 91.1171695886531 109.56960144277761 29.877959559004722 H 0.0 **** 0.06
29100 H 89.57228369576092 109.1920389032141 30.679069166297268 H 0.0 **** 0.06
29101 C 65.06740643478349 62.15778201836472 119.3505300409962 C 0.0 **** -0.24
29102 H 64.88352709964104 61.43455658134042 120.14521394194558 H 0.0 **** 0.06
29103 H 64.40487351863047 61.94972833589906 118.51054973605606 H 0.0 **** 0.06
29104 H 66.10437717574206 62.08196310574571 119.02403459054713 H 0.0 **** 0.06
29105 H 64.87700613599159 63.163634069669236 119.72504641529231 H 0.0 **** 0.06
29106 C 90.82808437575616 99.85422522383558 76.58209420947387 C 0.0 **** -0.24
29107 H 91.85438287920829 100.20784383386672 76.68421387627791 H 0.0 **** 0.06
29108 H 90.16175369811893 100.70710813839452 76.44561564476317 H 0.0 **** 0.06
29109 H 90.54119462462006 99.30886602576646 77.48096779473434 H 0.0 **** 0.06
29110 H 90.75576006719098 99.19349669892551 75.71809007136864 H 0.0 **** 0.06
29111 C 99.32011874699549 55.941597730059875 121.3780419518735 C 0.0 **** -0.24
29112 H 100.37116700021286 55.91452857408377 121.08951293824994 H 0.0 **** 0.06
29113 H 99.23490024705012 55.78143958041854 122.45356154254483 H 0.0 **** 0.06
29114 H 98.777384303026 55.15915460788704 120.84870543295062 H 0.0 **** 0.06
29115 H 98.89861357438801 56.9145732025273 121.1211287879713 H 0.0 **** 0.06
29116 C 4.240356235183214 91.24779868186855 38.38772063155231 C 0.0 **** -0.24
29117 H 4.86943809138279 90.5620696145622 37.82114519007942 H 0.0 **** 0.06
29118 H 4.810215904407357 91.65961120439886 39.22014389276275 H 0.0 **** 0.06
29119 H 3.3715118984946457 90.71171554775574 38.77175007441198 H 0.0 **** 0.06
29120 H 3.9089637091392717 92.05760995442958 37.738378827298106 H 0.0 **** 0.06
29121 C 112.10261869441193 65.5269849892801 95.75461971272048 C 0.0 **** -0.24
29122 H 112.63396235400097 66.0305411368339 96.56220144215848 H 0.0 **** 0.06
29123 H 111.0837498037757 65.91057120406174 95.6949542534089 H 0.0 **** 0.06
29124 H 112.07658559080838 64.45447094369803 95.94998881477781 H 0.0 **** 0.06
29125 H 112.61660124523884 65.71114250636583 94.81192251780135 H 0.0 **** 0.06
29126 C 109.35268525951065 54.717198530956004 71.19227168572775 C 0.0 **** -0.24
29127 H 108.30666001253377 54.48448224476892 71.39050996489576 H 0.0 **** 0.06
29128 H 109.52015338900478 55.78518022297424 71.33465393464758 H 0.0 **** 0.06
29129 H 109.59657367866518 54.44479143664805 70.1649820509731 H 0.0 **** 0.06
29130 H 109.98602913437827 54.15451545324462 71.87688787498644 H 0.0 **** 0.06
29131 C 42.31069608184666 37.40177416180097 43.79652112278531 C 0.0 **** -0.24
29132 H 41.647046802489626 37.862332634638506 43.065049573105796 H 0.0 **** 0.06
29133 H 43.15166909077885 38.06734626209152 43.993232464685775 H 0.0 **** 0.06
29134 H 42.68082014778577 36.45433753702628 43.40520650813585 H 0.0 **** 0.06
29135 H 41.76324828633253 37.22308021344776 44.72259594521364 H 0.0 **** 0.06
29136 C 71.84364384090702 33.590721369230494 90.66254141933564 C 0.0 **** -0.24
29137 H 70.79728024946553 33.87270870329462 90.54697980230102 H 0.0 **** 0.06
29138 H 72.42931714550133 34.02965916204292 89.85406965702913 H 0.0 **** 0.06
29139 H 71.93349927264504 32.50515010840148 90.6278261744844 H 0.0 **** 0.06
29140 H 72.21480165733732 33.955743940906956 91.61963047803903 H 0.0 **** 0.06
29141 C 72.38556336749835 66.95798149808408 105.98688736542275 C 0.0 **** -0.24
29142 H 73.1422236423405 67.5131689527204 106.54147934250281 H 0.0 **** 0.06
29143 H 71.50910189439682 66.80928802854879 106.61725760809207 H 0.0 **** 0.06
29144 H 72.78964073414579 65.9893474797799 105.69268038271923 H 0.0 **** 0.06
29145 H 72.1035936803641 67.52039628451774 105.09690993867645 H 0.0 **** 0.06
29146 C 49.597055152116866 61.996796390753566 16.052727408343106 C 0.0 **** -0.24
29147 H 50.52751951283643 62.52455558970309 15.844625504179753 H 0.0 **** 0.06
29148 H 49.0051317296907 62.57196353891107 16.765489363695995 H 0.0 **** 0.06
29149 H 49.82213105708517 61.016856895533145 16.475337904967052 H 0.0 **** 0.06
29150 H 49.0342860842763 61.873193601643926 15.12767095902522 H 0.0 **** 0.06
29151 C 11.182024012722195 22.024672549242297 79.8938914159082 C 0.0 **** -0.24
29152 H 12.228029014203287 21.728228233127254 79.81420172045631 H 0.0 **** 0.06
29153 H 11.09679937867054 22.87496253737544 80.5717578623175 H 0.0 **** 0.06
29154 H 10.595614715080274 21.191468201828684 80.28061322229516 H 0.0 **** 0.06
29155 H 10.80923687367357 22.305896255840935 78.90887815895334 H 0.0 **** 0.06
29156 C 110.01952567023801 108.94720245324288 27.038852361339643 C 0.0 **** -0.24
29157 H 111.05419704972226 109.16540868543953 26.77790370184666 H 0.0 **** 0.06
29158 H 109.98744718206049 108.43996547913528 28.004234085339064 H 0.0 **** 0.06
29159 H 109.57995876407531 108.30448818497928 26.276160137828647 H 0.0 **** 0.06
29160 H 109.45532138972763 109.87806996340774 27.099071609050775 H 0.0 **** 0.06
29161 C 60.12835315832702 35.33297381812379 62.168999654005695 C 0.0 **** -0.24
29162 H 59.47920683213018 34.52674052903642 61.82922179969807 H 0.0 **** 0.06
29163 H 59.61759004454044 35.90789020430684 62.94308263360801 H 0.0 **** 0.06
29164 H 60.36736668838038 35.98552744946783 61.33026589017131 H 0.0 **** 0.06
29165 H 61.04756403673516 34.91181002010552 62.57590939127113 H 0.0 **** 0.06
29166 C 48.16425386751371 13.372921346725462 37.86636133794596 C 0.0 **** -0.24
29167 H 47.18387690311914 13.84645258998114 37.82075144633899 H 0.0 **** 0.06
29168 H 48.043576999456434 12.289114609880045 37.85740336059192 H 0.0 **** 0.06
29169 H 48.67274761026661 13.674521642830058 38.78188057964476 H 0.0 **** 0.06
29170 H 48.756291191343664 13.680039315948221 37.00359279984423 H 0.0 **** 0.06
29171 C 86.75321999779729 74.14927441190969 11.888380940788693 C 0.0 **** -0.24
29172 H 86.95430027387266 75.19319233417554 12.13008789576159 H 0.0 **** 0.06
29173 H 85.96440799008417 74.09574667869782 11.138216617082264 H 0.0 **** 0.06
29174 H 86.43530595919151 73.623360817579 12.78868960478701 H 0.0 **** 0.06
29175 H 87.65966443444373 73.68625705777964 11.498023977207623 H 0.0 **** 0.06
29176 C 117.09700989749064 39.15111913553961 68.34355196032234 C 0.0 **** -0.24
29177 H 117.83142227630914 38.35142949902526 68.24734866934261 H 0.0 **** 0.06
29178 H 117.47689489217623 39.91321474873545 69.02465462983409 H 0.0 **** 0.06
29179 H 116.16538574685035 38.743744962009416 68.73660140813692 H 0.0 **** 0.06
29180 H 116.91546528225504 39.59586855555346 67.36477942720589 H 0.0 **** 0.06
29181 C 104.31821256935166 66.18493654459309 87.69710167277009 C 0.0 **** -0.24
29182 H 104.40480380097387 67.18472105846587 87.27147270231859 H 0.0 **** 0.06
29183 H 104.53193588208936 66.22541854167201 88.76471191404715 H 0.0 **** 0.06
29184 H 105.02985341596803 65.5193084210191 87.20799772695193 H 0.0 **** 0.06
29185 H 103.30524094961916 65.81183553659497 87.54295784783358 H 0.0 **** 0.06
29186 C 9.677556554759104 103.98467851577092 22.734120400790104 C 0.0 **** -0.24
29187 H 9.815988783364773 104.92010554139841 23.275548959376323 H 0.0 **** 0.06
29188 H 8.6828076026686 103.96704667918382 22.286839874033397 H 0.0 **** 0.06
29189 H 9.780990470475633 103.14720063082328 23.4229108313534 H 0.0 **** 0.06
29190 H 10.430015022804465 103.90472297563554 21.949882256142466 H 0.0 **** 0.06
29191 C 51.02632552783194 120.87150796143224 59.61553058151167 C 0.0 **** -0.24
29192 H 51.78789330519433 120.09655266286754 59.52031493896278 H 0.0 **** 0.06
29193 H 51.30751273951333 121.56106635684031 60.41186225472003 H 0.0 **** 0.06
29194 H 50.068059438255204 120.41048647712458 59.854403788553675 H 0.0 **** 0.06
29195 H 50.94357391640827 121.41574619200226 58.675062604349186 H 0.0 **** 0.06
29196 C 115.25603352923133 44.886592393863594 109.82158706386164 C 0.0 **** -0.24
29197 H 114.29528939228425 45.185050732222635 109.40208324740442 H 0.0 **** 0.06
29198 H 115.14389170820388 44.69937929475725 110.88987852194253 H 0.0 **** 0.06
29199 H 115.98242811052836 45.684827227921716 109.66696744577465 H 0.0 **** 0.06
29200 H 115.6020527283257 43.97928135046368 109.32714952986518 H 0.0 **** 0.06
29201 C 23.47991889081561 9.770031814177173 72.46750901682492 C 0.0 **** -0.24
29202 H 23.089036899927294 8.753444212819204 72.41980084083593 H 0.0 **** 0.06
29203 H 22.744443354471457 10.41956359468304 72.94227457698287 H 0.0 **** 0.06
29204 H 23.684682188104944 10.128247746332761 71.45860195011781 H 0.0 **** 0.06
29205 H 24.401131602595513 9.776914060537763 73.04950804133884 H 0.0 **** 0.06
29206 C 109.66013130801679 66.99850957316545 116.688174678146 C 0.0 **** -0.24
29207 H 109.12501253900456 66.21012698247131 117.21601540649905 H 0.0 **** 0.06
29208 H 109.02950464327733 67.39517900034267 115.8916750991832 H 0.0 **** 0.06
29209 H 110.5754980412722 66.59175446365057 116.25812681577008 H 0.0 **** 0.06
29210 H 109.9103884541272 67.79779498043806 117.3857335115694 H 0.0 **** 0.06
29211 C 30.981958968283145 85.25822635106985 12.956992515030805 C 0.0 **** -0.24
29212 H 30.93974335648634 86.32701468647744 12.743026247028766 H 0.0 **** 0.06
29213 H 29.980034714335964 84.8354535493348 12.891670181846969 H 0.0 **** 0.06
29214 H 31.377913681273803 85.10469075331554 13.960755835245035 H 0.0 **** 0.06
29215 H 31.631713404520546 84.76821801951579 12.231322355564775 H 0.0 **** 0.06
29216 C 117.1657268224006 60.10641220286386 46.88506844779744 C 0.0 **** -0.24
29217 H 116.40362958718629 60.8540072825248 46.66791076257965 H 0.0 **** 0.06
29218 H 117.65315715599704 60.348305297318 47.82928002573493 H 0.0 **** 0.06
29219 H 117.9063548666489 60.09943324997645 46.08467317974299 H 0.0 **** 0.06
29220 H 116.6995335529376 59.123412918064226 46.95756957882753 H 0.0 **** 0.06
29221 C 121.27573649720686 20.88311421080624 33.52525456051765 C 0.0 **** -0.24
29222 H 120.59602440052718 20.3878383200489 34.21944794027246 H 0.0 **** 0.06
29223 H 120.76708069609165 21.72736659068906 33.06018004323664 H 0.0 **** 0.06
29224 H 121.58678788208483 20.176863931604117 32.75636599125758 H 0.0 **** 0.06
29225 H 122.15183015724425 21.23959167271306 34.06782980627281 H 0.0 **** 0.06
29226 C 61.65891443972549 75.26281525274126 19.44561299634745 C 0.0 **** -0.24
29227 H 60.63294985547458 75.20316473963985 19.081314135134534 H 0.0 **** 0.06
29228 H 61.65180809851324 75.4106097718838 20.525764114461793 H 0.0 **** 0.06
29229 H 62.16649519731689 76.10048488771798 18.966406846122396 H 0.0 **** 0.06
29230 H 62.18219211188827 74.33697888514482 19.208643432482546 H 0.0 **** 0.06
29231 C 37.62057380651612 63.52554790189844 19.503629392152845 C 0.0 **** -0.24
29232 H 37.417407524831845 63.01274587687721 18.56348383161236 H 0.0 **** 0.06
29233 H 37.25635550143079 64.55137495508819 19.442604433530278 H 0.0 **** 0.06
29234 H 38.69458243365136 63.531867574413816 19.688722996953516 H 0.0 **** 0.06
29235 H 37.11413984705149 63.00738455556442 20.317568876954738 H 0.0 **** 0.06
29236 C 99.38063580727245 105.37754463113319 101.25855199833427 C 0.0 **** -0.24
29237 H 98.37465292680719 105.2108388944344 100.87358477304974 H 0.0 **** 0.06
29238 H 99.9328255101847 106.01291069653436 100.56636950594151 H 0.0 **** 0.06
29239 H 99.89182481977568 104.42068414224289 101.36154177481069 H 0.0 **** 0.06
29240 H 99.3214330959126 105.86483563023609 102.23133028916854 H 0.0 **** 0.06
29241 C 37.493072102951466 72.84222206482809 73.20259608529273 C 0.0 **** -0.24
29242 H 37.70311409228525 73.12940206039877 72.17207914356896 H 0.0 **** 0.06
29243 H 38.14570777102276 72.01786900829794 73.49086137821979 H 0.0 **** 0.06
29244 H 36.45250165096574 72.52880362431512 73.28736135132954 H 0.0 **** 0.06
29245 H 37.67066202018303 73.69372687915734 73.86035482920857 H 0.0 **** 0.06
29246 C 29.578156535428867 42.94684969560922 121.64857704535666 C 0.0 **** -0.24
29247 H 29.921786613256565 43.79194092102142 121.05255918838645 H 0.0 **** 0.06
29248 H 30.353330677514904 42.66506982604983 122.36098442032107 H 0.0 **** 0.06
29249 H 29.363179066882303 42.10343109905642 120.9928813423121 H 0.0 **** 0.06
29250 H 28.672927243960103 43.22713495978863 122.18784717170837 H 0.0 **** 0.06
29251 C 86.75716643906506 16.408720971609114 91.23411484135607 C 0.0 **** -0.24
29252 H 86.16220953317932 16.84051212857233 92.0393966865555 H 0.0 **** 0.06
29253 H 87.39036565522699 17.179445781324503 90.79650536014259 H 0.0 **** 0.06
29254 H 86.09229622437596 16.00538028578825 90.4690905780667 H 0.0 **** 0.06
29255 H 87.3799384993078 15.608208157379082 91.63205361072636 H 0.0 **** 0.06
29256 C 76.95658359507661 3.598933856910975 19.898527720287063 C 0.0 **** -0.24
29257 H 75.92295553143379 3.6795584619583366 19.561333628982254 H 0.0 **** 0.06
29258 H 77.19337292920122 2.552959850105225 20.09575441481546 H 0.0 **** 0.06
29259 H 77.08704907008538 4.1796349741912024 20.81088073255762 H 0.0 **** 0.06
29260 H 77.62197758214054 3.9819175395265347 19.124635296947332 H 0.0 **** 0.06
29261 C 114.72263816410452 77.48828852543255 4.1525790203314035 C 0.0 **** -0.24
29262 H 114.06884103514436 76.71516479591097 4.555642434573686 H 0.0 **** 0.06
29263 H 114.4535949336502 77.68684311828903 3.114830506546861 H 0.0 **** 0.06
29264 H 115.7570841780167 77.15012561432815 4.202442364680023 H 0.0 **** 0.06
29265 H 114.610285881832 78.40000276906758 4.738586856760477 H 0.0 **** 0.06
29266 C 33.8490314784714 73.39031234590016 61.58187309276508 C 0.0 **** -0.24
29267 H 32.80340859043426 73.70040663073374 61.57520082807065 H 0.0 **** 0.06
29268 H 34.38921997905666 73.9207947956966 60.7968482778426 H 0.0 **** 0.06
29269 H 33.91053065985011 72.31733243276213 61.40534269410472 H 0.0 **** 0.06
29270 H 34.29124044466977 73.62546228613226 62.55079050452591 H 0.0 **** 0.06
29271 C 38.77145711213055 52.677644027779934 41.26992264370858 C 0.0 **** -0.24
29272 H 39.06981623003844 52.685493572651296 42.318809870285406 H 0.0 **** 0.06
29273 H 38.97494189494435 51.696574045772934 40.84133923985314 H 0.0 **** 0.06
29274 H 39.33474876805036 53.43639181232203 40.7275211425673 H 0.0 **** 0.06
29275 H 37.705926277019074 52.89301910922683 41.194671703352924 H 0.0 **** 0.06
29276 C 107.80553514288127 33.90018437659177 61.285063725519535 C 0.0 **** -0.24
29277 H 107.8509587731863 32.823755909241754 61.12107423605187 H 0.0 **** 0.06
29278 H 107.41626325422914 34.09883485599573 62.28381571425115 H 0.0 **** 0.06
29279 H 107.14927584514777 34.353145770742856 60.542295384646195 H 0.0 **** 0.06
29280 H 108.80625839678694 34.32421329296483 61.19309272161644 H 0.0 **** 0.06
29281 C 107.32382780574378 115.89857036935044 93.88211996827704 C 0.0 **** -0.24
29282 H 107.87414976885572 116.31062323043321 93.03687843561988 H 0.0 **** 0.06
29283 H 106.26660890282281 115.82017405634731 93.62284115223486 H 0.0 **** 0.06
29284 H 107.43905071442575 116.55351072232345 94.74540434205636 H 0.0 **** 0.06
29285 H 107.7133134072941 114.90954769299421 94.12234114008623 H 0.0 **** 0.06
29286 C 30.329279658803614 47.597988604651974 5.426090825397058 C 0.0 **** -0.24
29287 H 30.477113806676357 48.46463606789107 4.7819151065396674 H 0.0 **** 0.06
29288 H 29.760756967249506 47.89277546474295 6.307689227508224 H 0.0 **** 0.06
29289 H 31.298398708539025 47.20477598590769 5.732665801497635 H 0.0 **** 0.06
29290 H 29.782802831007984 46.8292088348363 4.879885858763647 H 0.0 **** 0.06
29291 C 67.99363011322893 81.50494541095298 23.104269828844963 C 0.0 **** -0.24
29292 H 67.00336474465274 81.05294011621879 23.055877717324336 H 0.0 **** 0.06
29293 H 68.64448707236161 80.8889568468598 23.72464022337175 H 0.0 **** 0.06
29294 H 67.91672528429805 82.50255754975177 23.536204748947 H 0.0 **** 0.06
29295 H 68.40971271218604 81.57536888057712 22.098961930875475 H 0.0 **** 0.06
29296 C 107.6127237426434 45.61160911053892 43.977951091159326 C 0.0 **** -0.24
29297 H 108.3209892871154 44.849212191445076 43.65579754736889 H 0.0 **** 0.06
29298 H 108.05427972370288 46.20164312473884 44.78213229111006 H 0.0 **** 0.06
29299 H 106.70113109865767 45.133630119534104 44.337019442594254 H 0.0 **** 0.06
29300 H 107.37416487487448 46.264126914664104 43.137930660830534 H 0.0 **** 0.06
29301 C 22.329996776376063 86.16228733091546 2.6142059134248257 C 0.0 **** -0.24
29302 H 22.83675982469117 85.29594871560673 3.0392703104741656 H 0.0 **** 0.06
29303 H 21.595799832090904 85.82907507246924 1.880298834882069 H 0.0 **** 0.06
29304 H 23.061409127450624 86.80936368981872 2.130125050134154 H 0.0 **** 0.06
29305 H 21.825614912004767 86.71320811998481 3.4089797368722827 H 0.0 **** 0.06
29306 C 29.53279033293299 27.27282130264092 32.63209552569651 C 0.0 **** -0.24
29307 H 29.258037959588677 27.392462909934125 31.58428393645852 H 0.0 **** 0.06
29308 H 30.594852850796627 27.03754778081671 32.705483136085434 H 0.0 **** 0.06
29309 H 28.94969389542385 26.46314285602537 33.070574113991825 H 0.0 **** 0.06
29310 H 29.328220575220115 28.19932295021499 33.169899502502574 H 0.0 **** 0.06
29311 C 119.28214802690441 25.166236772803813 28.55130933439591 C 0.0 **** -0.24
29312 H 120.01338994471615 24.366097062594292 28.662578320645537 H 0.0 **** 0.06
29313 H 119.79955761343476 26.10899558075232 28.371233447011548 H 0.0 **** 0.06
29314 H 118.68848758945632 25.244649545435948 29.461963406148016 H 0.0 **** 0.06
29315 H 118.62726877432623 24.945082458345837 27.70847597887348 H 0.0 **** 0.06
29316 C 93.66550020277128 0.7628838637961053 62.203758956707134 C 0.0 **** -0.24
29317 H 93.8050773903202 1.543580353042728 62.951194106478795 H 0.0 **** 0.06
29318 H 93.48694474980655 -0.18964527060492742 62.70326907767276 H 0.0 **** 0.06
29319 H 94.56112573176506 0.6874055870489428 61.58656927147024 H 0.0 **** 0.06
29320 H 92.81059162520586 1.011099284343345 61.57547278848051 H 0.0 **** 0.06
29321 C 18.855861289060584 72.6179976629287 115.21082647189041 C 0.0 **** -0.24
29322 H 19.376944100161978 72.6079687558501 114.25394444847674 H 0.0 **** 0.06
29323 H 19.547454595407856 72.32999518774051 116.00342755551424 H 0.0 **** 0.06
29324 H 18.025183468064455 71.91385344374407 115.1787899789937 H 0.0 **** 0.06
29325 H 18.476075439370902 73.62082062675876 115.40631545104893 H 0.0 **** 0.06
29326 C 2.8863834745183112 108.8289609514402 104.76813058270105 C 0.0 **** -0.24
29327 H 2.647531348334553 108.30463580206893 103.84254430327354 H 0.0 **** 0.06
29328 H 3.691915868209591 109.54055379382211 104.58439607654469 H 0.0 **** 0.06
29329 H 3.2018435121213003 108.1083810649024 105.52320327091098 H 0.0 **** 0.06
29330 H 2.003798694055064 109.36236780625998 105.12148787338259 H 0.0 **** 0.06
29331 C 119.90044336103566 16.966102358315137 6.30264363896644 C 0.0 **** -0.24
29332 H 118.94522347370452 17.203959441752964 6.770608486790572 H 0.0 **** 0.06
29333 H 120.70356919189499 17.10123443811241 7.028434557906504 H 0.0 **** 0.06
29334 H 120.06304392886666 17.628605998608247 5.452293634477179 H 0.0 **** 0.06
29335 H 119.88991018482166 15.930680119111912 5.960968332310365 H 0.0 **** 0.06
29336 C 51.83590707227518 36.02544507841664 99.97811508781473 C 0.0 **** -0.24
29337 H 51.47795082497531 36.11957562931964 98.9523909781108 H 0.0 **** 0.06
29338 H 51.53254791979 36.90296716152341 100.5492861294774 H 0.0 **** 0.06
29339 H 52.92285001269784 35.950072119420696 99.97792510084179 H 0.0 **** 0.06
29340 H 51.40934800942687 35.13070265851148 100.43119397724928 H 0.0 **** 0.06
29341 C 8.467255414410545 41.53142853158596 62.834724128191205 C 0.0 **** -0.24
29342 H 8.698537575756745 42.53595324093567 63.190730962461835 H 0.0 **** 0.06
29343 H 8.827882901933208 41.41727402274557 61.81221656320394 H 0.0 **** 0.06
29344 H 7.389195219207238 41.37700362458909 62.860340834228545 H 0.0 **** 0.06
29345 H 8.955392584138906 40.797707032928 63.47666106338921 H 0.0 **** 0.06
29346 C 40.26532322760362 7.976460844604446 115.12847694839218 C 0.0 **** -0.24
29347 H 40.61955051462882 7.858157540748948 116.1522276285551 H 0.0 **** 0.06
29348 H 39.74965855064539 8.931935481701117 115.03059791223961 H 0.0 **** 0.06
29349 H 39.57767127983871 7.166313776563584 114.88575765216086 H 0.0 **** 0.06
29350 H 41.11441256530183 7.9494365794038515 114.44532460061342 H 0.0 **** 0.06
29351 C 53.59241823693594 26.599415551438284 50.09539636247695 C 0.0 **** -0.24
29352 H 52.88904971779465 26.023695071882457 49.494524715487614 H 0.0 **** 0.06
29353 H 53.68024592466986 26.148998596501926 51.084429744417946 H 0.0 **** 0.06
29354 H 53.23308849837002 27.624346142755968 50.192939211797466 H 0.0 **** 0.06
29355 H 54.56859740557081 26.60191335268547 49.60890360344729 H 0.0 **** 0.06
29356 C 6.381839257180147 56.51893632542297 105.50430069052507 C 0.0 **** -0.24
29357 H 5.8319385841727325 55.83205853107077 106.14738330947444 H 0.0 **** 0.06
29358 H 5.931383737747069 57.510490245667256 105.5633841876531 H 0.0 **** 0.06
29359 H 6.3423607796220836 56.162923480029406 104.47532626100374 H 0.0 **** 0.06
29360 H 7.419655826433512 56.5703875075443 105.83206527066986 H 0.0 **** 0.06
29361 C 58.995494139400705 107.14950408721697 72.16874690399223 C 0.0 **** -0.24
29362 H 59.833207960367076 107.01053337693935 72.85174016502418 H 0.0 **** 0.06
29363 H 58.63877703556432 106.17654945017082 71.82947656823478 H 0.0 **** 0.06
29364 H 59.3188262187096 107.7385957056282 71.31135872938901 H 0.0 **** 0.06
29365 H 58.189588710411954 107.67270635314568 72.68493780397611 H 0.0 **** 0.06
29366 C 21.7123782012213 60.951023481731646 86.08879825744859 C 0.0 **** -0.24
29367 H 22.084904211334134 60.83572809890571 87.10634601579909 H 0.0 **** 0.06
29368 H 22.3687435427356 60.417185961218074 85.39923437567992 H 0.0 **** 0.06
29369 H 21.692544270522177 62.00834859730221 85.82618580656361 H 0.0 **** 0.06
29370 H 20.70465246684151 60.54080866325473 86.02305803792348 H 0.0 **** 0.06
29371 C 58.87296033384451 55.964415637074296 81.85918978291423 C 0.0 **** -0.24
29372 H 59.620203293620385 55.890688752889616 81.06951428287394 H 0.0 **** 0.06
29373 H 58.87677788926192 56.97403080788456 82.26951007228277 H 0.0 **** 0.06
29374 H 59.10759262985962 55.24992828238527 82.64813314447204 H 0.0 **** 0.06
29375 H 57.88764722252742 55.741794462171754 81.44899587100105 H 0.0 **** 0.06
29376 C 103.41286382231078 26.63594461492672 58.64633799631511 C 0.0 **** -0.24
29377 H 104.12772665206808 27.44201882787157 58.481230080731166 H 0.0 **** 0.06
29378 H 103.16791344115614 26.580013733299097 59.70692093448222 H 0.0 **** 0.06
29379 H 103.8515434116693 25.69109442205435 58.32401748190969 H 0.0 **** 0.06
29380 H 102.50758444041509 26.83049147567163 58.07314713130813 H 0.0 **** 0.06
29381 C 31.66182976492857 116.21807474002264 101.57368860262403 C 0.0 **** -0.24
29382 H 31.189292873563545 116.58386566361011 100.66248227250568 H 0.0 **** 0.06
29383 H 31.050947235770764 115.42358862413414 102.00436896530715 H 0.0 **** 0.06
29384 H 31.75188359849082 117.0349387059614 102.28887643021824 H 0.0 **** 0.06
29385 H 32.65157389403072 115.82925464949679 101.33834732465044 H 0.0 **** 0.06
29386 C 112.74616196170734 111.56424790189413 99.3490947518155 C 0.0 **** -0.24
29387 H 113.7219070468916 111.8461771394206 98.9531912610471 H 0.0 **** 0.06
29388 H 111.96828242077578 112.1255718953827 98.82981542473465 H 0.0 **** 0.06
29389 H 112.70699058923725 111.79048218054112 100.41443730698569 H 0.0 **** 0.06
29390 H 112.58720007338127 110.4966418554157 99.19831159906974 H 0.0 **** 0.06
29391 C 2.2859109394546238 48.461892618974424 111.68021315431363 C 0.0 **** -0.24
29392 H 2.798946001808133 49.42142402645231 111.61146243457694 H 0.0 **** 0.06
29393 H 1.5580685141671324 48.38052645605364 110.87230837322662 H 0.0 **** 0.06
29394 H 1.775032796322506 48.39107420048759 112.63973976973645 H 0.0 **** 0.06
29395 H 3.014177350863804 47.65416244408919 111.59586133979283 H 0.0 **** 0.06
29396 C 48.80393440441213 15.034780553101882 46.427225638662655 C 0.0 **** -0.24
29397 H 48.7835427679919 14.030860163988251 46.002986118010725 H 0.0 **** 0.06
29398 H 49.831156377806515 15.303583636360457 46.67514315215331 H 0.0 **** 0.06
29399 H 48.19375577883086 15.060124362383164 47.329870000770335 H 0.0 **** 0.06
29400 H 48.40818095443405 15.743541199880198 45.70049417120437 H 0.0 **** 0.06
29401 C 66.5652175904691 101.81350410556738 13.778176382105727 C 0.0 **** -0.24
29402 H 66.95514808773132 101.29553930415202 12.901894574395449 H 0.0 **** 0.06
29403 H 66.89317526890932 102.85295562454081 13.760728113055293 H 0.0 **** 0.06
29404 H 66.93712289013041 101.33018320725543 14.681166106281399 H 0.0 **** 0.06
29405 H 65.47584141659607 101.77543607018572 13.767568992465208 H 0.0 **** 0.06
29406 C 94.14529740886115 62.472212325008 3.4591437942285435 C 0.0 **** -0.24
29407 H 94.00918252325482 61.44069144048257 3.136848216954048 H 0.0 **** 0.06
29408 H 94.99641758494172 62.907445373068754 2.9355000554372843 H 0.0 **** 0.06
29409 H 94.32895743003297 62.495960150888266 4.533684725393822 H 0.0 **** 0.06
29410 H 93.2470858891059 63.045903792571266 3.2312265263150834 H 0.0 **** 0.06
29411 C 59.31474801853239 7.292874944202936 56.91010969135829 C 0.0 **** -0.24
29412 H 59.56776953473008 8.103404240760923 57.592788562485794 H 0.0 **** 0.06
29413 H 60.22970266496595 6.852471326697454 56.514390403372545 H 0.0 **** 0.06
29414 H 58.714581361205596 7.684013931067469 56.08854690712241 H 0.0 **** 0.06
29415 H 58.74693851322781 6.531610278285726 57.444712892452316 H 0.0 **** 0.06
29416 C 116.7807936905673 115.83518408843227 106.45785335670581 C 0.0 **** -0.24
29417 H 116.41515336776325 116.34658848349525 107.34909008599823 H 0.0 **** 0.06
29418 H 117.78455106478343 115.4519662110757 106.6459262504213 H 0.0 **** 0.06
29419 H 116.80881809441141 116.53657411822863 105.62357772838573 H 0.0 **** 0.06
29420 H 116.11421086858753 115.00746749461933 106.21552978264498 H 0.0 **** 0.06
29421 C 0.9272514255848705 102.4263974991822 60.93996797852887 C 0.0 **** -0.24
29422 H 1.0786708074616058 102.59211251456821 62.00638900608931 H 0.0 **** 0.06
29423 H 0.2658871536725087 101.57173159488386 60.79488294923638 H 0.0 **** 0.06
29424 H 1.888484644909738 102.22778770983689 60.463983647843094 H 0.0 **** 0.06
29425 H 0.4779864121665014 103.31332528139058 60.4939050347769 H 0.0 **** 0.06
29426 C 100.77946335810987 14.31189692801604 119.93016500346653 C 0.0 **** -0.24
29427 H 100.8749823493512 13.328696912852706 119.46915633265024 H 0.0 **** 0.06
29428 H 101.7583624697213 14.787954685629074 119.97625847817304 H 0.0 **** 0.06
29429 H 100.379420815732 14.203299935984035 120.93839106955988 H 0.0 **** 0.06
29430 H 100.10297870578452 14.927525545765377 119.33611944274826 H 0.0 **** 0.06
29431 C 57.8451140893614 48.84735375408508 36.314260902232775 C 0.0 **** -0.24
29432 H 56.93773152872586 48.97795340091875 35.72582172122878 H 0.0 **** 0.06
29433 H 57.891312836582244 47.823943779146475 36.68918347763193 H 0.0 **** 0.06
29434 H 57.83691744591596 49.5419851271713 37.15444315688919 H 0.0 **** 0.06
29435 H 58.716095583299534 49.04432092798419 35.688579400073166 H 0.0 **** 0.06
29436 C 21.406401069919752 75.56203557394326 70.26190314033585 C 0.0 **** -0.24
29437 H 21.293079745924842 76.64213698611752 70.1648135438418 H 0.0 **** 0.06
29438 H 21.491955836342697 75.11474256349192 69.27176706139932 H 0.0 **** 0.06
29439 H 20.5350518691842 75.15033835978903 70.77177973092219 H 0.0 **** 0.06
29440 H 22.303340726799775 75.3417219488839 70.8400452009655 H 0.0 **** 0.06
29441 C 81.48601172431054 80.63721080799436 66.76465110664543 C 0.0 **** -0.24
29442 H 81.63488591957852 81.62190180616278 67.20758816090225 H 0.0 **** 0.06
29443 H 81.21471870635244 80.74736782845784 65.71432082319538 H 0.0 **** 0.06
29444 H 80.6867234942577 80.11791314176219 67.29437220855166 H 0.0 **** 0.06
29445 H 82.40764812225032 80.05979083184118 66.84354789438774 H 0.0 **** 0.06
29446 C 81.78533175019908 97.01202544213194 36.693791347035074 C 0.0 **** -0.24
29447 H 82.20759081353151 96.07748023746475 37.061173426051866 H 0.0 **** 0.06
29448 H 81.3162680333445 96.84134615077713 35.72398877673493 H 0.0 **** 0.06
29449 H 82.5778923832689 97.7520409188563 36.58879709151407 H 0.0 **** 0.06
29450 H 81.0386948502368 97.37650307345831 37.39904059508984 H 0.0 **** 0.06
29451 C 55.131089956075385 30.68938250173045 47.21052767631526 C 0.0 **** -0.24
29452 H 54.43432084444933 29.906335771957743 46.91546561489183 H 0.0 **** 0.06
29453 H 56.020884861933894 30.23754518548631 47.64894778804929 H 0.0 **** 0.06
29454 H 54.655998641770765 31.34188107512199 47.94230969368414 H 0.0 **** 0.06
29455 H 55.414798641311876 31.272516992199257 46.33373252117981 H 0.0 **** 0.06
29456 C 87.3940455257054 96.4975811392994 111.70185122056704 C 0.0 **** -0.24
29457 H 86.61417932077933 96.91294375095299 111.06427872818594 H 0.0 **** 0.06
29458 H 87.78329763767823 97.27889508473532 112.35542562199767 H 0.0 **** 0.06
29459 H 88.20124105192946 96.10791630364736 111.08134187660923 H 0.0 **** 0.06
29460 H 86.97912083144791 95.69205401123324 112.30658554019503 H 0.0 **** 0.06
29461 C 31.041750838619187 33.56345433058647 61.702327570091576 C 0.0 **** -0.24
29462 H 30.604679286817507 33.936066272258074 60.77557519528903 H 0.0 **** 0.06
29463 H 30.61502306679597 34.10415998269366 62.54759970526853 H 0.0 **** 0.06
29464 H 32.12079743988213 33.71258202174488 61.68091649894331 H 0.0 **** 0.06
29465 H 30.8245903580141 32.499912507556814 61.80415230100768 H 0.0 **** 0.06
29466 C 120.34142192757189 75.28862014157079 6.889318262449681 C 0.0 **** -0.24
29467 H 120.17263773201614 76.27917225540898 7.312759620017431 H 0.0 **** 0.06
29468 H 119.38248394012551 74.8196471862702 6.670207789370092 H 0.0 **** 0.06
29469 H 120.89126938435095 74.67728479706349 7.603913198336613 H 0.0 **** 0.06
29470 H 120.91921076298485 75.38204505758446 5.969661810904718 H 0.0 **** 0.06
29471 C 17.740308564622183 13.245711121179426 85.51223675408727 C 0.0 **** -0.24
29472 H 17.582723832442525 12.219834442472148 85.1791073069466 H 0.0 **** 0.06
29473 H 16.916628965787766 13.547778702047026 86.1590251430037 H 0.0 **** 0.06
29474 H 17.782858810331106 13.906336840853726 84.64643293662147 H 0.0 **** 0.06
29475 H 18.678189804724923 13.308501852176079 86.06399143401569 H 0.0 **** 0.06
29476 C 122.06517447831001 31.943694665086937 4.744441708805102 C 0.0 **** -0.24
29477 H 122.51855260144848 32.388482661378276 5.630923016050286 H 0.0 **** 0.06
29478 H 122.3713698837875 32.502886159711466 3.860690420397697 H 0.0 **** 0.06
29479 H 120.97921516696705 31.97651420665963 4.837018316983123 H 0.0 **** 0.06
29480 H 122.39038565155748 30.907652103363233 4.65159444956441 H 0.0 **** 0.06
29481 C 94.21571874067564 17.77900874738765 93.96193546878192 C 0.0 **** -0.24
29482 H 94.69102328224562 16.862641310686627 93.6092549476713 H 0.0 **** 0.06
29483 H 94.25267565703646 18.532683230868656 93.17551568635511 H 0.0 **** 0.06
29484 H 94.74262610576028 18.144958947813507 94.8425444333464 H 0.0 **** 0.06
29485 H 93.17699868204437 17.572197136556156 94.2193470443452 H 0.0 **** 0.06
29486 C 46.86969755545681 69.00102391076874 85.58182614870998 C 0.0 **** -0.24
29487 H 46.76666083898829 70.08357718161699 85.50770478847716 H 0.0 **** 0.06
29488 H 47.743019678843666 68.75926256312655 86.1876743588277 H 0.0 **** 0.06
29489 H 46.99223990340931 68.57914334933912 84.5836315956519 H 0.0 **** 0.06
29490 H 45.97693718086799 68.5826549289298 86.04665024277878 H 0.0 **** 0.06
29491 C 72.44344523961709 119.12701382181743 115.21660894054071 C 0.0 **** -0.24
29492 H 71.73597257191363 119.58794140990716 115.90507916407557 H 0.0 **** 0.06
29493 H 72.20216533037018 118.07035166260296 115.10026365237127 H 0.0 **** 0.06
29494 H 73.45419924637255 119.22781995803307 115.61404155230872 H 0.0 **** 0.06
29495 H 72.38378048427933 119.62310870424119 114.24852782613283 H 0.0 **** 0.06
29496 C 8.486537529700087 19.02603029350638 48.299674852053386 C 0.0 **** -0.24
29497 H 7.452061677719286 19.20957392725569 48.59016509536889 H 0.0 **** 0.06
29498 H 8.510832497841307 18.306610521928008 47.48038909772299 H 0.0 **** 0.06
29499 H 9.03681679560566 18.62607967405907 49.15115611617159 H 0.0 **** 0.06
29500 H 8.944327642441664 19.96074904929111 47.97642855234932 H 0.0 **** 0.06
29501 C 91.51655860135463 11.998861101399488 18.21478814075826 C 0.0 **** -0.24
29502 H 91.61938331373437 11.510229049235445 19.182815945708334 H 0.0 **** 0.06
29503 H 91.56189802482822 13.079717558813183 18.34665838627044 H 0.0 **** 0.06
29504 H 90.55818766886426 11.72617295479002 17.77092492224716 H 0.0 **** 0.06
29505 H 92.32499153547357 11.678331288400834 17.557822427603476 H 0.0 **** 0.06
29506 C 69.6137690264571 118.23475532091184 94.12861340357034 C 0.0 **** -0.24
29507 H 69.32764454306789 117.34934371567235 94.69621642717465 H 0.0 **** 0.06
29508 H 69.61853766078431 117.99721561564736 93.064542301312 H 0.0 **** 0.06
29509 H 70.60866193963989 118.55698734618598 94.43411410670276 H 0.0 **** 0.06
29510 H 68.89834699534637 119.03457138368002 94.31878619307199 H 0.0 **** 0.06
29511 C 91.0019624818845 103.76872498935825 78.09016661657228 C 0.0 **** -0.24
29512 H 92.04136448073518 104.084248551831 77.99747617621085 H 0.0 **** 0.06
29513 H 90.40404006713496 104.26348463186665 77.32418171926724 H 0.0 **** 0.06
29514 H 90.62690930832662 104.04013156789688 79.0776598020297 H 0.0 **** 0.06
29515 H 90.93738975939513 102.68854236872579 77.96188972590096 H 0.0 **** 0.06
29516 C 117.1510921333907 98.03225733869334 107.33149539678237 C 0.0 **** -0.24
29517 H 117.91698277088419 98.62787924214015 107.82939325063612 H 0.0 **** 0.06
29518 H 117.61464786648128 97.16651815721639 106.85836656791676 H 0.0 **** 0.06
29519 H 116.65528470241193 98.63926341619828 106.57419378921253 H 0.0 **** 0.06
29520 H 116.41830515941362 97.69665162594163 108.06593275677997 H 0.0 **** 0.06
29521 C 33.13360153223593 103.34938941657592 58.63063369403531 C 0.0 **** -0.24
29522 H 33.86507868694446 103.4293834925266 59.434631975251385 H 0.0 **** 0.06
29523 H 32.142414723722226 103.58745270176408 59.01732962494486 H 0.0 **** 0.06
29524 H 33.136394786147406 102.33361070214045 58.23645875918936 H 0.0 **** 0.06
29525 H 33.391817566216076 104.04882193573624 57.83529051054623 H 0.0 **** 0.06
29526 C 67.8807542756029 54.525226967454444 104.92415416624516 C 0.0 **** -0.24
29527 H 67.70660360238546 55.256363873893775 104.13502143385102 H 0.0 **** 0.06
29528 H 67.36237984508881 54.8383104429999 105.83085359667763 H 0.0 **** 0.06
29529 H 68.94985272756023 54.45264872680974 105.12218697199825 H 0.0 **** 0.06
29530 H 67.50272045376104 53.5530100977995 104.6069618716659 H 0.0 **** 0.06
29531 C 96.64127397774786 13.372197914877063 81.3134136133607 C 0.0 **** -0.24
29532 H 97.21191096855941 14.029935173614831 81.96948089943012 H 0.0 **** 0.06
29533 H 96.89504874870244 12.333687118333728 81.53021748978324 H 0.0 **** 0.06
29534 H 96.88223190611083 13.596946137915268 80.27538927413212 H 0.0 **** 0.06
29535 H 95.57534802370253 13.52923296768995 81.48212653430326 H 0.0 **** 0.06
29536 C 114.55453071246598 25.85534931563211 31.7477610087071 C 0.0 **** -0.24
29537 H 115.52173497367366 25.55646906053181 32.152234316320516 H 0.0 **** 0.06
29538 H 113.76539936921967 25.281016283996337 32.23399189147395 H 0.0 **** 0.06
29539 H 114.53543491696666 25.66437125965723 30.674720995388384 H 0.0 **** 0.06
29540 H 114.39538861484908 26.917671536194575 31.931313155576618 H 0.0 **** 0.06
29541 C 27.611632082271605 46.02703010390519 66.95072204985306 C 0.0 **** -0.24
29542 H 28.534271178830885 45.60533414694055 66.55120136182794 H 0.0 **** 0.06
29543 H 27.621358135148867 47.10944206644402 66.82284369288175 H 0.0 **** 0.06
29544 H 27.531691204212294 45.78624795511351 68.01098832104248 H 0.0 **** 0.06
29545 H 26.759320722610546 45.60562524451987 66.41694731648414 H 0.0 **** 0.06
29546 C 30.605026979314772 118.43637795494647 118.92082284374935 C 0.0 **** -0.24
29547 H 29.665110062358707 118.10108223910628 118.48089537963756 H 0.0 **** 0.06
29548 H 31.27470503825819 118.77641450264275 118.13114154742077 H 0.0 **** 0.06
29549 H 31.067477668051225 117.60985941829499 119.45986140245428 H 0.0 **** 0.06
29550 H 30.409877975351833 119.25757003109948 119.61156784085085 H 0.0 **** 0.06
29551 C 70.17498860161683 75.56409763136952 44.032862632641496 C 0.0 **** -0.24
29552 H 70.28437030018526 74.74315811427977 43.3246521786713 H 0.0 **** 0.06
29553 H 69.63863402286381 75.21366108591647 44.91553652806931 H 0.0 **** 0.06
29554 H 69.61624413518678 76.37440277611003 43.56583773400146 H 0.0 **** 0.06
29555 H 71.16095476478736 75.92336906313471 44.32672801414566 H 0.0 **** 0.06
29556 C 91.03213364720355 42.66183824027669 83.14131966273172 C 0.0 **** -0.24
29557 H 89.94780312098555 42.741734516549116 83.06542490862498 H 0.0 **** 0.06
29558 H 91.29102778197432 41.76647200604363 83.7068232302627 H 0.0 **** 0.06
29559 H 91.4261451391285 43.54105722439881 83.65110006035374 H 0.0 **** 0.06
29560 H 91.46233942397055 42.59749596907571 82.14152806958344 H 0.0 **** 0.06
29561 C 90.37020206361436 41.50908092122978 33.8082881838811 C 0.0 **** -0.24
29562 H 90.77917403126528 42.041764728885454 32.94937197391448 H 0.0 **** 0.06
29563 H 89.71677139427962 42.1763963901808 34.37164388021938 H 0.0 **** 0.06
29564 H 91.18605269686384 41.17367716183827 34.44916198727125 H 0.0 **** 0.06
29565 H 89.7999461832377 40.647073770432655 33.46287393728775 H 0.0 **** 0.06
29566 C 117.59114831819937 14.313191867053863 1.851368755653784 C 0.0 **** -0.24
29567 H 116.97460279362173 13.489086196963253 2.2112821195275014 H 0.0 **** 0.06
29568 H 117.25376879957696 14.613370440732997 0.8584991249390157 H 0.0 **** 0.06
29569 H 118.63163892511233 13.992938267726455 1.8002508418183112 H 0.0 **** 0.06
29570 H 117.50289563954846 15.15706343852695 2.53520158106798 H 0.0 **** 0.06
29571 C 17.430118598013166 113.10381059124295 84.62894368026139 C 0.0 **** -0.24
29572 H 17.992965309329406 112.72150027774 85.48018365998172 H 0.0 **** 0.06
29573 H 16.48630522173113 112.56312252604602 84.545427410385 H 0.0 **** 0.06
29574 H 18.01034651057438 112.96412819603304 83.71640021713841 H 0.0 **** 0.06
29575 H 17.229876918504658 114.16552090293894 84.77345187667365 H 0.0 **** 0.06
29576 C 74.68638842155602 115.16556355822424 45.944341044451505 C 0.0 **** -0.24
29577 H 75.5228591293243 114.96433334443063 46.6146151375697 H 0.0 **** 0.06
29578 H 75.04414927568862 115.19383042490655 44.91525102467955 H 0.0 **** 0.06
29579 H 74.24025256307837 116.12702707663459 46.20117348120465 H 0.0 **** 0.06
29580 H 73.93989917175315 114.37905817498573 46.04955579937109 H 0.0 **** 0.06
29581 C 78.40277928037088 106.61149213504663 9.323207825443035 C 0.0 **** -0.24
29582 H 78.61322950576428 106.47315887224696 8.263569850709501 H 0.0 **** 0.06
29583 H 79.03919600658648 105.94749526269774 9.909880770608027 H 0.0 **** 0.06
29584 H 77.35619746425323 106.37972819394648 9.51984984891709 H 0.0 **** 0.06
29585 H 78.60360395222372 107.64626286479432 9.601607078554423 H 0.0 **** 0.06
29586 C 46.03406885871175 44.66102798196803 89.83396068300368 C 0.0 **** -0.24
29587 H 46.826054985936594 44.20214565520007 89.24107942884632 H 0.0 **** 0.06
29588 H 45.063519187157794 44.36002990872203 89.43884088274152 H 0.0 **** 0.06
29589 H 46.12622408699144 45.74632073653606 89.78581287351395 H 0.0 **** 0.06
29590 H 46.122480446839404 44.33463493577108 90.8699501003824 H 0.0 **** 0.06
29591 C 70.98833507691921 20.181798986402498 97.13347439952491 C 0.0 **** -0.24
29592 H 69.91049703121811 20.328669753426084 97.20810882335454 H 0.0 **** 0.06
29593 H 71.38109116588959 20.790093218842856 96.31852659254221 H 0.0 **** 0.06
29594 H 71.1989701065348 19.13123007699909 96.93627674279625 H 0.0 **** 0.06
29595 H 71.46094215675274 20.4787189547381 98.06946327837065 H 0.0 **** 0.06
29596 C 62.55806389221845 121.65890138951237 1.0279125266839344 C 0.0 **** -0.24
29597 H 62.90900220723676 120.84612855220925 1.6645794716090592 H 0.0 **** 0.06
29598 H 63.11348155717749 122.56820318236532 1.261008391825115 H 0.0 **** 0.06
29599 H 61.49568437471478 121.82671986511282 1.2064170956593756 H 0.0 **** 0.06
29600 H 62.71409088040111 121.39490354548677 -0.017548035257334504 H 0.0 **** 0.06
29601 C 0.9053721387486036 26.31844763246051 14.424701302861518 C 0.0 **** -0.24
29602 H 1.57682611018663 25.913545556101866 13.667052939662188 H 0.0 **** 0.06
29603 H 1.3437657656306072 26.17502688229446 15.412631301536784 H 0.0 **** 0.06
29604 H -0.05303593406270579 25.80213538520789 14.373012412594178 H 0.0 **** 0.06
29605 H 0.7552667680883758 27.3825579265488 14.244122362523076 H 0.0 **** 0.06
29606 C 105.63096983819364 59.26151083435141 68.78338037730097 C 0.0 **** -0.24
29607 H 105.28963331656408 58.776902933465095 69.6983403289093 H 0.0 **** 0.06
29608 H 105.66037955418614 58.53063618273558 67.97503239421309 H 0.0 **** 0.06
29609 H 106.62901395037647 59.6704911484112 68.94035227321737 H 0.0 **** 0.06
29610 H 104.94426741155516 60.0660373827977 68.52112113261754 H 0.0 **** 0.06
29611 C 3.5111721735489994 98.31491683890474 68.71327451148136 C 0.0 **** -0.24
29612 H 3.1162610063145735 99.04214717198045 68.00295668660897 H 0.0 **** 0.06
29613 H 3.7767641197546737 98.8212802736368 69.64067575082228 H 0.0 **** 0.06
29614 H 4.396615288078053 97.83966038223696 68.2905619068095 H 0.0 **** 0.06
29615 H 2.753514137032937 97.55678092927602 68.91597002567576 H 0.0 **** 0.06
29616 C 85.92400728433816 68.55586482222742 31.573669086068946 C 0.0 **** -0.24
29617 H 85.51304536778116 69.56482488722398 31.604830056379782 H 0.0 **** 0.06
29618 H 85.189159894212 67.87727834993106 31.139578211713975 H 0.0 **** 0.06
29619 H 86.16512367924588 68.23019112432337 32.58584431246709 H 0.0 **** 0.06
29620 H 86.82755568060733 68.55041606074599 30.96478347786374 H 0.0 **** 0.06
29621 C 65.72506811851423 72.38499894540632 48.488464819460944 C 0.0 **** -0.24
29622 H 65.00600095354838 72.00826162932105 47.76123547319594 H 0.0 **** 0.06
29623 H 66.51934348234937 71.65078920029225 48.627442838225164 H 0.0 **** 0.06
29624 H 65.2222411716582 72.56157215998996 49.43823899166384 H 0.0 **** 0.06
29625 H 66.15400944229776 73.31880085957371 48.123636765211955 H 0.0 **** 0.06
29626 C 13.831358334010986 90.56182655175226 3.831721384538156 C 0.0 **** -0.24
29627 H 14.27506621379922 91.3588770963909 3.2357987128677337 H 0.0 **** 0.06
29628 H 13.022996040256416 90.0936050470491 3.269180531744979 H 0.0 **** 0.06
29629 H 13.436885201785998 90.97805255122523 4.758033388078246 H 0.0 **** 0.06
29630 H 14.592256503868015 89.81541071331588 4.0637571637142855 H 0.0 **** 0.06
29631 C 87.06009560111573 17.81801129448209 80.21630692026972 C 0.0 **** -0.24
29632 H 86.0503054326918 17.458336500516452 80.41284689940392 H 0.0 **** 0.06
29633 H 87.18451400171122 18.808456608702897 80.65423645585673 H 0.0 **** 0.06
29634 H 87.22402989031144 17.872293444298606 79.14032778686288 H 0.0 **** 0.06
29635 H 87.78231974326442 17.13097478881852 80.6596728800223 H 0.0 **** 0.06
29636 C 108.43960953322016 64.54119811395196 109.97996146789279 C 0.0 **** -0.24
29637 H 107.38576065168382 64.77896668641367 109.83708831128942 H 0.0 **** 0.06
29638 H 108.53073533651775 63.671252301418605 110.63098953746211 H 0.0 **** 0.06
29639 H 108.94506714305317 65.39248561147068 110.43742666381254 H 0.0 **** 0.06
29640 H 108.89620554868804 64.32333339929787 109.01431754222335 H 0.0 **** 0.06
29641 C 65.87377408659685 54.74216556756579 43.543209022905415 C 0.0 **** -0.24
29642 H 65.23666815523552 53.8621679653383 43.461188771959286 H 0.0 **** 0.06
29643 H 65.67871291164025 55.410702528081885 42.70419314338537 H 0.0 **** 0.06
29644 H 66.91976541065537 54.43558906878857 43.52720455756787 H 0.0 **** 0.06
29645 H 65.66060570846082 55.25976379751651 44.478157368660305 H 0.0 **** 0.06
29646 C 81.54429600571964 119.54059252200928 25.70173475991934 C 0.0 **** -0.24
29647 H 81.98292958481647 119.81015223863614 24.74146280861276 H 0.0 **** 0.06
29648 H 80.4610376931449 119.64987470740084 25.650111521576676 H 0.0 **** 0.06
29649 H 81.93951659040283 120.19592558856583 26.477961141338305 H 0.0 **** 0.06
29650 H 81.79455268729583 118.50590666575955 25.937514190491783 H 0.0 **** 0.06
29651 C 39.681142577765826 107.05154558029318 87.3943648737889 C 0.0 **** -0.24
29652 H 40.70227723451694 106.72949477841607 87.59888976679125 H 0.0 **** 0.06
29653 H 39.69851449935069 108.02034252910045 86.89611116020575 H 0.0 **** 0.06
29654 H 39.13274535914027 107.13474253459404 88.33282313132727 H 0.0 **** 0.06
29655 H 39.19244148774035 106.32030456150511 86.75078976123191 H 0.0 **** 0.06
29656 C 67.85664408637112 32.755979283115515 118.78223961379645 C 0.0 **** -0.24
29657 H 67.10253442602172 31.977970705770666 118.66178454194343 H 0.0 **** 0.06
29658 H 68.26126824766212 32.71679599841255 119.79374547338934 H 0.0 **** 0.06
29659 H 67.40332274763881 33.73148911677172 118.60908823010136 H 0.0 **** 0.06
29660 H 68.66042428394124 32.596104350973214 118.06306399544809 H 0.0 **** 0.06
29661 C 23.213060043452273 26.38001199276198 73.0250311502686 C 0.0 **** -0.24
29662 H 23.063645870427436 25.891384603181677 72.06181214556872 H 0.0 **** 0.06
29663 H 22.252381009417277 26.720436710145748 73.41266498186556 H 0.0 **** 0.06
29664 H 23.877443861746514 27.234731732912508 72.89817125228299 H 0.0 **** 0.06
29665 H 23.658471059695117 25.67451805487127 73.72527065732802 H 0.0 **** 0.06
29666 C 57.05049953025309 83.12288939858595 12.308389226327648 C 0.0 **** -0.24
29667 H 58.032186580854614 83.44249285298031 11.958058921157672 H 0.0 **** 0.06
29668 H 56.28066693899757 83.54320240707938 11.662421115104213 H 0.0 **** 0.06
29669 H 56.89895678250616 83.47176437504203 13.330647639821894 H 0.0 **** 0.06
29670 H 56.99363190994433 82.03480246965063 12.283710899833068 H 0.0 **** 0.06
29671 C 112.89087069942377 83.27492895564052 16.752113214822828 C 0.0 **** -0.24
29672 H 112.8053765266585 82.82752765970935 15.761537629539788 H 0.0 **** 0.06
29673 H 113.64047388883944 82.73415398323212 17.330653334055967 H 0.0 **** 0.06
29674 H 111.9280768661979 83.21863025356336 17.26056247593135 H 0.0 **** 0.06
29675 H 113.19013623286062 84.31815992051929 16.654643301808818 H 0.0 **** 0.06
29676 C 11.68732925825637 115.70584747737492 78.79816505918566 C 0.0 **** -0.24
29677 H 11.748054995126182 114.6210848714733 78.70412960754098 H 0.0 **** 0.06
29678 H 10.993237373023419 116.09628502867763 78.05338982689773 H 0.0 **** 0.06
29679 H 12.674265291497193 116.13984112754535 78.63897370710552 H 0.0 **** 0.06
29680 H 11.333143538601831 115.96410275402641 79.79560967319085 H 0.0 **** 0.06
29681 C 81.50712017504952 64.08649768959944 27.49924915741196 C 0.0 **** -0.24
29682 H 80.92647885499247 63.741798886699314 28.355536832429053 H 0.0 **** 0.06
29683 H 81.9930801592094 63.234892043630566 27.02362975192319 H 0.0 **** 0.06
29684 H 82.26329836135864 64.79641965455554 27.835740664705767 H 0.0 **** 0.06
29685 H 80.84410113948371 64.57411513677872 26.78355844561986 H 0.0 **** 0.06
29686 C 84.59292421340547 23.345094394563453 5.00135435146948 C 0.0 **** -0.24
29687 H 85.42942281981178 23.930707459099146 5.383420549352724 H 0.0 **** 0.06
29688 H 84.33951932727518 23.685469330002974 3.9978156408940677 H 0.0 **** 0.06
29689 H 83.730928616184 23.473419703322136 5.65719916542519 H 0.0 **** 0.06
29690 H 84.87091992766622 22.292185701492798 4.96984675548169 H 0.0 **** 0.06
29691 C 67.33345156126168 29.77851232617276 14.766429255264434 C 0.0 **** -0.24
29692 H 67.01309161302342 30.79809352463444 14.551450585267272 H 0.0 **** 0.06
29693 H 66.67930275776163 29.075922868550194 14.250029669587196 H 0.0 **** 0.06
29694 H 67.28261774026151 29.601046128748372 15.840996069293151 H 0.0 **** 0.06
29695 H 68.35952282288301 29.64072871177855 14.424438600960087 H 0.0 **** 0.06
29696 C 7.278867008842596 90.06015022025758 112.97255106935305 C 0.0 **** -0.24
29697 H 6.427669927483208 90.68690196899854 112.70711202343537 H 0.0 **** 0.06
29698 H 7.92709574432628 90.60171121641201 113.66223823159817 H 0.0 **** 0.06
29699 H 7.837096706026287 89.80465204016969 112.07163851044098 H 0.0 **** 0.06
29700 H 6.921440786857772 89.14746892845193 113.45035389115168 H 0.0 **** 0.06
29701 C 43.91788145491245 75.3698371517618 26.527538896725247 C 0.0 **** -0.24
29702 H 43.04596218149442 75.96348702645838 26.25118443601879 H 0.0 **** 0.06
29703 H 44.47070071946371 75.88258152847632 27.315381682932156 H 0.0 **** 0.06
29704 H 44.55990632759347 75.24019120263202 25.656888530331756 H 0.0 **** 0.06
29705 H 43.592382089348064 74.39388528079846 26.8875600553026 H 0.0 **** 0.06
29706 C 49.72595946566403 52.67269912269825 64.85364689078159 C 0.0 **** -0.24
29707 H 50.553872755482416 52.75229696090787 64.1493586821073 H 0.0 **** 0.06
29708 H 50.04204987427954 53.045442560161916 65.82903882816888 H 0.0 **** 0.06
29709 H 49.42439970675761 51.6291528181348 64.94415629411 H 0.0 **** 0.06
29710 H 48.88386182662512 53.26403464118823 64.49423905390148 H 0.0 **** 0.06
29711 C 23.723785211302605 71.57894911904174 10.266253196164286 C 0.0 **** -0.24
29712 H 24.681619822560513 71.07745372785561 10.134563188298216 H 0.0 **** 0.06
29713 H 23.73241011220749 72.52706316433083 9.72727121603208 H 0.0 **** 0.06
29714 H 23.55320226581759 71.76594272576187 11.326101268583614 H 0.0 **** 0.06
29715 H 22.925898435399112 70.9466110556468 9.87649761734528 H 0.0 **** 0.06
29716 C 107.92443944318535 54.10043396052606 11.068396881347894 C 0.0 **** -0.24
29717 H 106.92527088023019 54.153906415682 10.633326610036875 H 0.0 **** 0.06
29718 H 107.95862368812806 53.29146385699795 11.79873994333741 H 0.0 **** 0.06
29719 H 108.15756568902253 55.044665937193145 11.5594785447459 H 0.0 **** 0.06
29720 H 108.65319427893547 53.91015161243217 10.280637316007073 H 0.0 **** 0.06
29721 C 29.805282020716092 64.07209099686398 92.05532290421763 C 0.0 **** -0.24
29722 H 29.86986140293584 63.65354705911241 91.05089938248324 H 0.0 **** 0.06
29723 H 28.93598114089 64.72762140275591 92.11941716973953 H 0.0 **** 0.06
29724 H 30.708179475047707 64.64373155121328 92.26939386712272 H 0.0 **** 0.06
29725 H 29.705300817160442 63.2640704279562 92.78004053795595 H 0.0 **** 0.06
29726 C 114.98895021951652 10.50090788302498 56.66902177630397 C 0.0 **** -0.24
29727 H 114.01315428798037 10.0179707385292 56.627475542106914 H 0.0 **** 0.06
29728 H 115.22960807076178 10.745274141910244 57.70390587023302 H 0.0 **** 0.06
29729 H 114.96662222163663 11.415066222295252 56.0755513588066 H 0.0 **** 0.06
29730 H 115.74591003564794 9.826446219256638 56.26846411150155 H 0.0 **** 0.06
29731 C 69.4128549510572 63.45407092710601 35.29984962684841 C 0.0 **** -0.24
29732 H 68.49980880109109 63.90588305904462 35.68650659293962 H 0.0 **** 0.06
29733 H 69.61130142135119 63.835155030886845 34.29794940700535 H 0.0 **** 0.06
29734 H 69.29337671298751 62.37136485146835 35.260751916576424 H 0.0 **** 0.06
29735 H 70.24639582004025 63.70304288921793 35.95619304379926 H 0.0 **** 0.06
29736 C 94.24490456789866 4.599289391921644 64.25603180437764 C 0.0 **** -0.24
29737 H 93.60066931386268 4.862443653759712 63.41580682168174 H 0.0 **** 0.06
29738 H 94.71960508516716 5.500315569384497 64.64457186449803 H 0.0 **** 0.06
29739 H 95.01065239497859 3.900411700971432 63.920491452527955 H 0.0 **** 0.06
29740 H 93.64675423904461 4.135443369269254 65.03977482967406 H 0.0 **** 0.06
29741 C 27.33995205705736 44.32378850088958 26.67452703328629 C 0.0 **** -0.24
29742 H 26.505190658101924 44.22422479806099 27.368802656876362 H 0.0 **** 0.06
29743 H 28.09803090103844 43.576415972520124 26.90974167054133 H 0.0 **** 0.06
29744 H 27.77085486839485 45.320259813643474 26.766829613229895 H 0.0 **** 0.06
29745 H 26.98382509056472 44.173950973800146 25.655431152910793 H 0.0 **** 0.06
29746 C 93.37353433955198 28.683723723897884 72.7012966455676 C 0.0 **** -0.24
29747 H 93.8635882276138 27.986950624697144 73.38089250370487 H 0.0 **** 0.06
29748 H 93.5371220506041 28.36311320156281 71.67284925470423 H 0.0 **** 0.06
29749 H 93.78790987798155 29.681624118509873 72.8418341778742 H 0.0 **** 0.06
29750 H 92.30397096801047 28.702451364180604 72.91103841612386 H 0.0 **** 0.06
29751 C 120.59956450528722 119.02614165356026 103.0618433082289 C 0.0 **** -0.24
29752 H 121.57634866988019 119.16716012027892 103.52579447000733 H 0.0 **** 0.06
29753 H 120.5764033089747 119.54183315944 102.10088750305837 H 0.0 **** 0.06
29754 H 119.82679416715843 119.43486640921378 103.71230634704688 H 0.0 **** 0.06
29755 H 120.42080825415849 117.96187135441696 102.9078852791186 H 0.0 **** 0.06
29756 C 101.37519182467051 81.9577601667624 58.04550171854555 C 0.0 **** -0.24
29757 H 100.6561531252627 81.15592860059962 58.21557423363976 H 0.0 **** 0.06
29758 H 101.13558420670228 82.46755927138423 57.11227548772058 H 0.0 **** 0.06
29759 H 102.37889317361018 81.53821028385897 57.98343254862567 H 0.0 **** 0.06
29760 H 101.32787060644938 82.66859464649073 58.87127726175311 H 0.0 **** 0.06
29761 C 61.082401293831936 48.17758419651062 50.98453908407191 C 0.0 **** -0.24
29762 H 60.193020282229384 47.710427816308766 50.56308043525206 H 0.0 **** 0.06
29763 H 61.95038446258596 47.917034797073256 50.37958428332365 H 0.0 **** 0.06
29764 H 61.23021308598922 47.8245533137254 52.00481402846464 H 0.0 **** 0.06
29765 H 60.9548331511096 49.26011985712563 50.99002053416142 H 0.0 **** 0.06
29766 C 27.181235408257805 66.41878194856938 99.51408724315394 C 0.0 **** -0.24
29767 H 27.20424089811229 67.11023225013338 98.67171240733484 H 0.0 **** 0.06
29768 H 27.977033347632243 66.67216581993245 100.2131739886783 H 0.0 **** 0.06
29769 H 27.325566965669452 65.40026601367637 99.15090005610767 H 0.0 **** 0.06
29770 H 26.216476564208108 66.49051924641941 100.01715911802935 H 0.0 **** 0.06
29771 C 78.82360208206185 32.7921575250588 56.55450638802938 C 0.0 **** -0.24
29772 H 78.09447479494642 33.33047743894295 55.94925257445766 H 0.0 **** 0.06
29773 H 79.66892326287686 32.50129926485451 55.93033594721385 H 0.0 **** 0.06
29774 H 78.35890778746722 31.901507987834293 56.97630454871171 H 0.0 **** 0.06
29775 H 79.17291916204135 33.43647247884738 57.36188176423627 H 0.0 **** 0.06
29776 C 106.4599903764641 59.38703711783736 15.69436444230864 C 0.0 **** -0.24
29777 H 106.69218024684372 59.88384207476968 14.75225147710286 H 0.0 **** 0.06
29778 H 105.9911652760245 60.09824361631127 16.374536096224432 H 0.0 **** 0.06
29779 H 107.37896395852351 59.007593079852235 16.14035308265855 H 0.0 **** 0.06
29780 H 105.77776307832931 58.55746344187998 15.507675985440926 H 0.0 **** 0.06
29781 C 110.16807920680782 27.81298141509876 72.96679003261082 C 0.0 **** -0.24
29782 H 111.21602436209787 27.895829442512934 73.25564692903811 H 0.0 **** 0.06
29783 H 110.07708265856078 27.94880714266634 71.88909892123152 H 0.0 **** 0.06
29784 H 109.58739675401543 28.57870610508786 73.48081794792853 H 0.0 **** 0.06
29785 H 109.79353494924939 26.826981700675105 73.24228287568656 H 0.0 **** 0.06
29786 C 36.98447173821637 26.194631222806947 31.24427876231556 C 0.0 **** -0.24
29787 H 37.819788516297535 26.744619009759788 31.67725384431401 H 0.0 **** 0.06
29788 H 37.03280096954711 25.152419069597585 31.56045792825074 H 0.0 **** 0.06
29789 H 37.038685718475506 26.247593008995125 30.15625711619981 H 0.0 **** 0.06
29790 H 36.045754327748796 26.63339013427131 31.58304031543355 H 0.0 **** 0.06
29791 C 35.00656560316226 83.00197151329797 102.4589327984888 C 0.0 **** -0.24
29792 H 35.09942801397227 84.03990573560696 102.77997687943054 H 0.0 **** 0.06
29793 H 35.99881500305395 82.57617701911096 102.31461291928949 H 0.0 **** 0.06
29794 H 34.45286235645139 82.95956451692987 101.52084298038966 H 0.0 **** 0.06
29795 H 34.473796071570916 82.43262307239539 103.22031252357837 H 0.0 **** 0.06
29796 C 69.19829875366034 63.90391477164846 106.65469504388122 C 0.0 **** -0.24
29797 H 70.24431335736992 63.607590095148964 106.5789438639465 H 0.0 **** 0.06
29798 H 69.10403756215547 64.96648266306161 106.43104705086631 H 0.0 **** 0.06
29799 H 68.83910104296515 63.71112992539423 107.66564763575889 H 0.0 **** 0.06
29800 H 68.60630833598947 63.328594559572934 105.94267879028996 H 0.0 **** 0.06
29801 C 33.39936368899404 63.35573502846347 80.61894116904733 C 0.0 **** -0.24
29802 H 33.99373572654731 64.26666442300785 80.55190671307963 H 0.0 **** 0.06
29803 H 33.7780491645433 62.733740692253974 81.42979532771 H 0.0 **** 0.06
29804 H 33.466922892450306 62.80811552656198 79.67891150752217 H 0.0 **** 0.06
29805 H 32.358746972435476 63.61441947203036 80.81515112787741 H 0.0 **** 0.06
29806 C 65.75957946371594 112.58640868369746 90.68011076190353 C 0.0 **** -0.24
29807 H 66.4500235873897 112.55905411032245 89.83704802707979 H 0.0 **** 0.06
29808 H 65.65680190507419 111.58423180713191 91.09726116288937 H 0.0 **** 0.06
29809 H 64.7864620153272 112.94095257654405 90.34176754124707 H 0.0 **** 0.06
29810 H 66.14650369423262 113.26005640347348 91.44418109556167 H 0.0 **** 0.06
29811 C 100.88377135782977 107.64269451591554 54.01684025398288 C 0.0 **** -0.24
29812 H 101.06993380177877 106.72057919247464 53.46691029168639 H 0.0 **** 0.06
29813 H 101.2376811207485 107.53107974022447 55.041796915836215 H 0.0 **** 0.06
29814 H 99.81397914858633 107.85269118755485 54.02251325909208 H 0.0 **** 0.06
29815 H 101.41302023458118 108.46510846147243 53.53633321325347 H 0.0 **** 0.06
29816 C 116.50160275523979 81.21637093607896 57.67402290784838 C 0.0 **** -0.24
29817 H 115.74764471778164 80.47863765687615 57.39910469148606 H 0.0 **** 0.06
29818 H 116.56247967331771 81.97863568534177 56.89682176235581 H 0.0 **** 0.06
29819 H 117.46938536303055 80.72462713549541 57.777236480208586 H 0.0 **** 0.06
29820 H 116.22706396063671 81.68216101974025 58.619936815514336 H 0.0 **** 0.06
29821 C 83.76787451418147 4.563591124987738 23.589026066304456 C 0.0 **** -0.24
29822 H 83.55332479874019 4.517496564193394 22.520657252750397 H 0.0 **** 0.06
29823 H 84.51254739645825 5.3375200794756665 23.776888887376117 H 0.0 **** 0.06
29824 H 84.15235874758011 3.600393041352035 23.92353528912554 H 0.0 **** 0.06
29825 H 82.85373097841907 4.798930778800681 24.132617719338413 H 0.0 **** 0.06
29826 C 62.646923317897524 84.10279550129385 73.56581198042716 C 0.0 **** -0.24
29827 H 61.842728887784226 84.81814681105976 73.73511318118386 H 0.0 **** 0.06
29828 H 63.57048799284646 84.48506905842208 74.00056173415524 H 0.0 **** 0.06
29829 H 62.78292540440612 83.95472002143342 72.49467977846871 H 0.0 **** 0.06
29830 H 62.39167475322747 83.1517999630008 74.03459428835168 H 0.0 **** 0.06
29831 C 100.4335540497481 65.55796584319594 121.75812789799109 C 0.0 **** -0.24
29832 H 100.07193034570474 66.29711515649541 121.04300361405787 H 0.0 **** 0.06
29833 H 100.12129383561523 64.56193992139333 121.43971588509874 H 0.0 **** 0.06
29834 H 100.01768499646167 65.77126589403633 122.74206695261559 H 0.0 **** 0.06
29835 H 101.52154796775295 65.60004644249662 121.80580984896764 H 0.0 **** 0.06
29836 C 43.23633440580238 90.1989138919669 111.09667516065917 C 0.0 **** -0.24
29837 H 42.97365456553257 89.45221702899002 110.34712046524646 H 0.0 **** 0.06
29838 H 43.368543443497856 91.1673512445181 110.61383148499922 H 0.0 **** 0.06
29839 H 44.16405928146304 89.9082022262815 111.58911539901496 H 0.0 **** 0.06
29840 H 42.4380674173583 90.26663329321488 111.83599514828498 H 0.0 **** 0.06
29841 C 0.3789246965804409 54.915023183736956 91.50856317548454 C 0.0 **** -0.24
29842 H 1.4015754106677463 54.69881407893681 91.81710045009237 H 0.0 **** 0.06
29843 H 0.35910138504809197 55.13026928696372 90.44030465376562 H 0.0 **** 0.06
29844 H 0.007420917651458581 55.77836649674074 92.06071116573764 H 0.0 **** 0.06
29845 H -0.25428170781454185 54.051977810092446 91.71714296457748 H 0.0 **** 0.06
29846 C 108.13148751730844 92.39546355033059 109.79315439784511 C 0.0 **** -0.24
29847 H 108.88353798045435 93.14767691601955 109.55651069167985 H 0.0 **** 0.06
29848 H 108.55851217257685 91.65769331536251 110.47344053469533 H 0.0 **** 0.06
29849 H 107.81194855581072 91.90128780811858 108.87576663545201 H 0.0 **** 0.06
29850 H 107.27483719241971 92.87421866469245 110.26558935359282 H 0.0 **** 0.06
29851 C 42.92165265663302 33.23708232728098 68.79806720073032 C 0.0 **** -0.24
29852 H 43.747775435045 32.9974807799337 69.46671906853274 H 0.0 **** 0.06
29853 H 42.46997619513273 32.313740166445186 68.43425158319155 H 0.0 **** 0.06
29854 H 43.29371297653067 33.81675536242042 67.95348718614551 H 0.0 **** 0.06
29855 H 42.17468161719181 33.819038132291254 69.33804668432299 H 0.0 **** 0.06
29856 C 79.76510486336926 20.544541131030314 115.27486013779026 C 0.0 **** -0.24
29857 H 79.94606520801423 21.281554793292912 116.05671645205024 H 0.0 **** 0.06
29858 H 80.69309676785562 20.351226226992537 114.73594776060764 H 0.0 **** 0.06
29859 H 79.01538861697372 20.927118122468073 114.58234983498195 H 0.0 **** 0.06
29860 H 79.4061862349239 19.618938999321756 115.72375899466374 H 0.0 **** 0.06
29861 C 120.4623130467025 51.07490071954106 37.610057345867176 C 0.0 **** -0.24
29862 H 121.49894033176943 51.15026515040532 37.94069201831408 H 0.0 **** 0.06
29863 H 119.88222221939647 51.887667324365026 38.04704499390249 H 0.0 **** 0.06
29864 H 120.04788338495004 50.118415700610626 37.92983326113597 H 0.0 **** 0.06
29865 H 120.42259545043586 51.143690702372396 36.522978426460185 H 0.0 **** 0.06
29866 C 105.05696098663799 33.53436302233305 74.4700388051233 C 0.0 **** -0.24
29867 H 105.47588336918741 32.58800517581349 74.81382806965138 H 0.0 **** 0.06
29868 H 105.55256838165758 34.358078220065266 74.98380792795433 H 0.0 **** 0.06
29869 H 103.98953604545576 33.559765229845965 74.68709824224416 H 0.0 **** 0.06
29870 H 105.21259883945075 33.63004181509831 73.39561964244945 H 0.0 **** 0.06
29871 C 70.3349167143636 2.0856496683525165 50.84283783928913 C 0.0 **** -0.24
29872 H 70.0205002588674 2.845355794352315 50.12818061497978 H 0.0 **** 0.06
29873 H 71.01945730420289 1.390126692860406 50.354852969925844 H 0.0 **** 0.06
29874 H 69.46146831429786 1.5429075956456018 51.204127278624185 H 0.0 **** 0.06
29875 H 70.83897945344421 2.563644619462366 51.68272872733297 H 0.0 **** 0.06
29876 C 51.65869007261682 106.03749607225024 83.59178147186066 C 0.0 **** -0.24
29877 H 52.399058749441316 105.51208135791802 84.19408261464707 H 0.0 **** 0.06
29878 H 50.75736121046385 105.42973817176036 83.5133484728259 H 0.0 **** 0.06
29879 H 52.06259941828298 106.21958435728985 82.59577633208878 H 0.0 **** 0.06
29880 H 51.41501355571353 106.98971854505567 84.06433762681283 H 0.0 **** 0.06
29881 C 47.63802784667979 32.045137135646485 89.37615799684332 C 0.0 **** -0.24
29882 H 47.442252568376205 32.4220867391747 88.37255591435732 H 0.0 **** 0.06
29883 H 48.34346310213999 32.70474080912993 89.88125621382818 H 0.0 **** 0.06
29884 H 48.060953923850775 31.041685705948403 89.31148192527831 H 0.0 **** 0.06
29885 H 46.70545173583673 32.009808130183806 89.93953779890978 H 0.0 **** 0.06
29886 C 91.59151359354036 118.86706793808884 122.56977797684324 C 0.0 **** -0.24
29887 H 92.04371464157734 118.37907933512645 123.4338297843043 H 0.0 **** 0.06
29888 H 91.87195597757989 118.3308877805535 121.66308450927653 H 0.0 **** 0.06
29889 H 91.94354073251216 119.8961495953406 122.50801318253407 H 0.0 **** 0.06
29890 H 90.50607589474055 118.85971685472157 122.67575518331226 H 0.0 **** 0.06
29891 C 91.69249143503257 92.04019586816031 33.31134878578042 C 0.0 **** -0.24
29892 H 91.51705104892187 92.89148755856792 32.65264526500539 H 0.0 **** 0.06
29893 H 90.8471517463193 91.92598873641151 33.98984245925706 H 0.0 **** 0.06
29894 H 92.60254643682094 92.20951424045785 33.888450520782825 H 0.0 **** 0.06
29895 H 91.80450396559411 91.13549100409028 32.71377918111421 H 0.0 **** 0.06
29896 C 115.61461817470709 37.396238271407725 114.75011769072908 C 0.0 **** -0.24
29897 H 115.39882044139941 38.243547440113815 115.40091230986815 H 0.0 **** 0.06
29898 H 114.96117451030369 36.562479994832174 115.0106858209827 H 0.0 **** 0.06
29899 H 116.65429228620025 37.09654013270482 114.87591042143983 H 0.0 **** 0.06
29900 H 115.44208624298085 37.68240467092076 113.7121920187664 H 0.0 **** 0.06
29901 C 100.42533346208873 81.36172111213543 45.40926468432197 C 0.0 **** -0.24
29902 H 100.74647550255176 82.32839328421807 45.79554017924278 H 0.0 **** 0.06
29903 H 100.00749866071277 81.49049041316172 44.410750948681226 H 0.0 **** 0.06
29904 H 99.6678526538123 80.9393008329111 46.06960631641893 H 0.0 **** 0.06
29905 H 101.2816194762309 80.68798369111533 45.36014890518044 H 0.0 **** 0.06
29906 C 56.51027371214971 97.54441467615067 107.9627804811222 C 0.0 **** -0.24
29907 H 56.667468758583254 96.81868402790897 107.1646377051897 H 0.0 **** 0.06
29908 H 55.455904161700516 97.55871822780125 108.23770475095671 H 0.0 **** 0.06
29909 H 56.80902688067323 98.53430851303162 107.61690781330338 H 0.0 **** 0.06
29910 H 57.109978993078386 97.26702171936691 108.83008313412068 H 0.0 **** 0.06
29911 C 42.94877953052651 57.95017063461998 20.625637097480922 C 0.0 **** -0.24
29912 H 42.28246534888481 57.789387552322665 19.778752051101876 H 0.0 **** 0.06
29913 H 42.37143427885994 57.93731304555942 21.549419649352366 H 0.0 **** 0.06
29914 H 43.44459146217653 58.91434368692816 20.5195055471223 H 0.0 **** 0.06
29915 H 43.69772235226557 57.15782198815435 20.65364566795999 H 0.0 **** 0.06
29916 C 9.897702582466007 62.460382091008945 69.31491518098858 C 0.0 **** -0.24
29917 H 10.037922746320337 61.63984268022714 70.01772770418046 H 0.0 **** 0.06
29918 H 10.503458345885853 63.31237467112434 69.62602418457442 H 0.0 **** 0.06
29919 H 8.846843393378613 62.74819261175987 69.29738915744457 H 0.0 **** 0.06
29920 H 10.204262230120374 62.140696659421174 68.31840998908913 H 0.0 **** 0.06
29921 C 24.856684184136554 75.06520217838656 10.798889051622588 C 0.0 **** -0.24
29922 H 25.17044981510594 74.99806236016511 9.756898391358526 H 0.0 **** 0.06
29923 H 23.767064474296575 75.0730156080146 10.850348471401603 H 0.0 **** 0.06
29924 H 25.248046273022 75.982978662525 11.237716086555935 H 0.0 **** 0.06
29925 H 25.24032408918515 74.20622083949883 11.349597343976587 H 0.0 **** 0.06
29926 C 67.23403677445143 110.88219596276065 68.25441751523462 C 0.0 **** -0.24
29927 H 67.72570704478281 111.0187814679017 69.21796300655771 H 0.0 **** 0.06
29928 H 66.15646791909359 110.98355918360971 68.3793091830459 H 0.0 **** 0.06
29929 H 67.46372223033413 109.88984707309771 67.86718197182981 H 0.0 **** 0.06
29930 H 67.59211992212732 111.63682932040814 67.55441961441005 H 0.0 **** 0.06
29931 C 83.84488920400915 89.4966294764576 117.04475185657085 C 0.0 **** -0.24
29932 H 84.27910244096867 88.77127033274553 117.73332585158309 H 0.0 **** 0.06
29933 H 82.97670374208025 89.05701050067921 116.55444863375436 H 0.0 **** 0.06
29934 H 84.58532606775637 89.77318051225484 116.2938990567157 H 0.0 **** 0.06
29935 H 83.53977377877462 90.38420463634702 117.59853973301742 H 0.0 **** 0.06
29936 C 22.428856523730232 92.98599547019523 95.1473229676526 C 0.0 **** -0.24
29937 H 21.691234858046712 92.77466234339795 95.92187945325435 H 0.0 **** 0.06
29938 H 21.917373203300563 93.27017750912466 94.22833632766162 H 0.0 **** 0.06
29939 H 23.03288286608153 92.09592941023584 94.96848569968375 H 0.0 **** 0.06
29940 H 23.072821993151265 93.80252137331416 95.47363729597072 H 0.0 **** 0.06
29941 C 103.37743114668382 33.31929884994557 39.392471299633826 C 0.0 **** -0.24
29942 H 103.27798723827402 32.23406841017794 39.433410240904195 H 0.0 **** 0.06
29943 H 102.79722053204566 33.70486661939091 38.554039265084214 H 0.0 **** 0.06
29944 H 104.42681781295013 33.58267768469287 39.260367782358514 H 0.0 **** 0.06
29945 H 103.00679178416559 33.75281353354487 40.32135429163499 H 0.0 **** 0.06
29946 C 16.14543591088496 10.977429834550989 16.773801626997678 C 0.0 **** -0.24
29947 H 15.712995435549583 10.487120726589943 17.646494237847207 H 0.0 **** 0.06
29948 H 17.19963039595774 10.711403144250081 16.69207063954222 H 0.0 **** 0.06
29949 H 16.04992860895097 12.057911868744263 16.880502374863 H 0.0 **** 0.06
29950 H 15.618339434353508 10.652850820106092 15.877183625017938 H 0.0 **** 0.06
29951 C 102.66289253524391 28.951462265136286 101.14060783039764 C 0.0 **** -0.24
29952 H 102.7770843887433 30.032315678822783 101.05957552947496 H 0.0 **** 0.06
29953 H 101.62025065208826 28.711358599570758 101.35355940608645 H 0.0 **** 0.06
29954 H 103.29379921232146 28.57969956205551 101.94753802980858 H 0.0 **** 0.06
29955 H 102.95877326170515 28.48379694317265 100.20245764215224 H 0.0 **** 0.06
29956 C 46.76287349795214 46.16906893203287 36.42640176192515 C 0.0 **** -0.24
29957 H 47.21488700082576 45.17850581396715 36.382315521998436 H 0.0 **** 0.06
29958 H 46.948265737555886 46.695654473505726 35.48963894535743 H 0.0 **** 0.06
29959 H 47.199455138994765 46.7313519064698 37.25189886218277 H 0.0 **** 0.06
29960 H 45.688590387068835 46.071514048097754 36.58116267682513 H 0.0 **** 0.06
29961 C 62.78274211555209 48.06731569083177 88.4442043940121 C 0.0 **** -0.24
29962 H 63.572206208934325 47.89438422824815 87.71389610640824 H 0.0 **** 0.06
29963 H 62.54661537536615 47.13190265511593 88.95257709703776 H 0.0 **** 0.06
29964 H 61.893232029637 48.43920948806261 87.93587877980815 H 0.0 **** 0.06
29965 H 63.11751082325761 48.80359661780854 89.17446695121163 H 0.0 **** 0.06
29966 C 2.8237102537472083 77.67792654833195 65.97525889197539 C 0.0 **** -0.24
29967 H 3.7991063047826543 78.00337727131094 65.61410728970267 H 0.0 **** 0.06
29968 H 2.3482037859027685 78.49272921205699 66.522976385943 H 0.0 **** 0.06
29969 H 2.948500801625414 76.8198587629164 66.63674146681262 H 0.0 **** 0.06
29970 H 2.1977964777616847 77.39576790646348 65.12790144261817 H 0.0 **** 0.06
29971 C 46.16500755414647 13.502665079121996 0.3218484828312569 C 0.0 **** -0.24
29972 H 45.726967139639584 13.428931176596151 1.3172273230679536 H 0.0 **** 0.06
29973 H 46.89558430405868 12.705241148589167 0.18608098205552892 H 0.0 **** 0.06
29974 H 46.657397430519445 14.46945039328915 0.21442164153646104 H 0.0 **** 0.06
29975 H 45.380096433308225 13.409350058851217 -0.428707291159796 H 0.0 **** 0.06
29976 C 26.330735799351743 57.16388032024229 17.141215182331173 C 0.0 **** -0.24
29977 H 25.35427008589562 56.70869359768154 16.97760940402729 H 0.0 **** 0.06
29978 H 26.199669196893353 58.17105102118044 17.538562548451925 H 0.0 **** 0.06
29979 H 26.871193451387086 57.21357802142297 16.196248113089087 H 0.0 **** 0.06
29980 H 26.89682917569391 56.56203092362188 17.852345787944422 H 0.0 **** 0.06
29981 C 9.886049224368264 15.438209994965405 118.13683510266522 C 0.0 **** -0.24
29982 H 10.129423384547849 15.0960732721461 119.14228552959295 H 0.0 **** 0.06
29983 H 10.769755592996319 15.886579316421148 117.68170304356059 H 0.0 **** 0.06
29984 H 9.088217421545892 16.178959902313807 118.18773798590377 H 0.0 **** 0.06
29985 H 9.558361574673683 14.590971794644759 117.53374355879336 H 0.0 **** 0.06
29986 C 105.73747070718275 58.49617520465807 25.49562591303254 C 0.0 **** -0.24
29987 H 105.90399219034342 57.74044095253237 24.72886428663358 H 0.0 **** 0.06
29988 H 106.19672822062765 58.17256240911155 26.430330407258424 H 0.0 **** 0.06
29989 H 104.6664391889334 58.63310658929936 25.644768167007953 H 0.0 **** 0.06
29990 H 106.18351417117015 59.43963112333961 25.179081521954146 H 0.0 **** 0.06
29991 C 85.63422925461998 66.26458127273207 20.18033404904105 C 0.0 **** -0.24
29992 H 85.14675821560658 65.3849341982143 19.75918422187155 H 0.0 **** 0.06
29993 H 86.55568154376746 65.96541366001941 20.679274441142212 H 0.0 **** 0.06
29994 H 84.96721270533283 66.73818547160477 20.901323762553716 H 0.0 **** 0.06
29995 H 85.86461543595419 66.96892703033271 19.381069146205476 H 0.0 **** 0.06
29996 C 120.25777730459609 59.57460614658726 15.388503832966933 C 0.0 **** -0.24
29997 H 119.82256133549123 60.57288164710073 15.345269591816873 H 0.0 **** 0.06
29998 H 119.66369267615521 58.94840912347837 16.054780742890614 H 0.0 **** 0.06
29999 H 121.27847126411174 59.639651001307215 15.765436371050612 H 0.0 **** 0.06
30000 H 120.26628597615657 59.138547004344474 14.389891736323023 H 0.0 **** 0.06
30001 C 43.660768178422245 82.7901804046756 57.51974986045647 C 0.0 **** -0.24
30002 H 42.779884750118754 83.22670239646496 57.047334626227666 H 0.0 **** 0.06
30003 H 44.37904769632166 82.50286248459247 56.75199920703588 H 0.0 **** 0.06
30004 H 43.36724068658492 81.9097803822516 58.0907529225361 H 0.0 **** 0.06
30005 H 44.11473712871668 83.52281386232872 58.18684919682667 H 0.0 **** 0.06
30006 C 10.525770566010692 93.40885153932828 6.175500637430332 C 0.0 **** -0.24
30007 H 11.531642400763076 93.47501815244885 5.76128941161565 H 0.0 **** 0.06
30008 H 10.56930845763469 92.9519018119534 7.163667362220764 H 0.0 **** 0.06
30009 H 9.903003501116814 92.80012858122353 5.519552695313564 H 0.0 **** 0.06
30010 H 10.1001148335817 94.40946699466684 6.2555448571697525 H 0.0 **** 0.06
30011 C 2.573260282840714 9.964576850761091 27.429366152768978 C 0.0 **** -0.24
30012 H 3.316989066321815 9.171658287088462 27.511047243593808 H 0.0 **** 0.06
30013 H 3.032654577240777 10.847527413748423 26.98329171998656 H 0.0 **** 0.06
30014 H 2.1969812031165503 10.212317671956043 28.42140577558061 H 0.0 **** 0.06
30015 H 1.7498690199929925 9.626525375189658 26.801760346486418 H 0.0 **** 0.06
30016 C 74.33406380214257 11.829219793368601 89.03755831673001 C 0.0 **** -0.24
30017 H 73.46614869547659 12.412706824191794 88.72797559179773 H 0.0 **** 0.06
30018 H 74.96514327386615 12.43642661318411 89.68758122767824 H 0.0 **** 0.06
30019 H 74.9013765246766 11.527574130996591 88.15776900708758 H 0.0 **** 0.06
30020 H 74.00152559189377 10.943096103957963 89.57800282116082 H 0.0 **** 0.06
30021 C 55.74174254957239 30.786319271890534 14.480097738485565 C 0.0 **** -0.24
30022 H 55.416992073132235 30.331083094841176 13.544280822648936 H 0.0 **** 0.06
30023 H 56.578853072401444 31.457212519852874 14.286677572853542 H 0.0 **** 0.06
30024 H 56.055225156306506 30.00596085658958 15.17352799929117 H 0.0 **** 0.06
30025 H 54.916578217230466 31.34926966151994 14.91469034472576 H 0.0 **** 0.06
30026 C 107.92485614979407 38.30819341090029 14.280394415325674 C 0.0 **** -0.24
30027 H 107.28183521309526 38.31513418590259 15.161064095417146 H 0.0 **** 0.06
30028 H 108.96752660534727 38.358569790109186 14.592214243845717 H 0.0 **** 0.06
30029 H 107.69008925025216 39.168915596834495 13.653620142002154 H 0.0 **** 0.06
30030 H 107.75693790889201 37.39037719275825 13.716333231454058 H 0.0 **** 0.06
30031 C 94.05066817668427 12.822008093017757 36.83363724966455 C 0.0 **** -0.24
30032 H 92.97675048847407 12.8225550647565 36.64897650737129 H 0.0 **** 0.06
30033 H 94.3248456735707 13.725474935785655 37.38066251034272 H 0.0 **** 0.06
30034 H 94.58231772997593 12.797268477635043 35.882626308713874 H 0.0 **** 0.06
30035 H 94.31790820852976 11.945021451430307 37.42249315637817 H 0.0 **** 0.06
30036 C 11.89520693994595 121.1672099742236 110.87796738195513 C 0.0 **** -0.24
30037 H 11.96790148902926 120.3059110013353 110.21468339053652 H 0.0 **** 0.06
30038 H 12.80250195066668 121.76638554377017 110.79671734707037 H 0.0 **** 0.06
30039 H 11.776060715647532 120.82388330540786 111.90618096436746 H 0.0 **** 0.06
30040 H 11.032924869423795 121.77111468265196 110.59502414833642 H 0.0 **** 0.06
30041 C 43.56046396049339 85.99434563511005 69.3486617153049 C 0.0 **** -0.24
30042 H 44.12726343753144 85.89224346890956 70.2745476029005 H 0.0 **** 0.06
30043 H 42.67574399968436 86.60496170731403 69.53059237404577 H 0.0 **** 0.06
30044 H 43.2565113450896 85.00805981417773 68.99946240312946 H 0.0 **** 0.06
30045 H 44.183375216469386 86.47203926104328 68.59303055848955 H 0.0 **** 0.06
30046 C 96.402411686905 47.997117074777094 114.220547708167 C 0.0 **** -0.24
30047 H 95.35125056113674 47.77044443481705 114.3988702586685 H 0.0 **** 0.06
30048 H 96.48204923357352 48.902247132062044 113.61741618002078 H 0.0 **** 0.06
30049 H 96.86821102168335 47.16520968165588 113.69074086701119 H 0.0 **** 0.06
30050 H 96.9075687037751 48.148696368210466 115.17368733778913 H 0.0 **** 0.06
30051 C 14.480599527199786 23.01475849734082 89.99778079501951 C 0.0 **** -0.24
30052 H 14.663877147918384 22.0732965120243 90.5176181621581 H 0.0 **** 0.06
30053 H 13.703170818749925 22.869269481146247 89.24695342108086 H 0.0 **** 0.06
30054 H 15.39882452289325 23.34466123383885 89.51067994901001 H 0.0 **** 0.06
30055 H 14.157477756195647 23.76909621663235 90.71500742675289 H 0.0 **** 0.06
30056 C 41.09977815331217 11.333641629349472 72.83139399054889 C 0.0 **** -0.24
30057 H 40.88706665820561 12.35762268111256 73.13913540158964 H 0.0 **** 0.06
30058 H 42.033895075199524 11.309956866601908 72.2691593412502 H 0.0 **** 0.06
30059 H 40.28828281617564 10.967573858539538 72.20302244922061 H 0.0 **** 0.06
30060 H 41.190463159612364 10.700686764711179 73.71441297367576 H 0.0 **** 0.06
30061 C 91.5183045909177 44.728686790291675 57.2675846678934 C 0.0 **** -0.24
30062 H 91.37082833953687 43.930546958830405 56.54027890397845 H 0.0 **** 0.06
30063 H 92.32267947420712 44.45319629242567 57.95073856411909 H 0.0 **** 0.06
30064 H 90.59845937722648 44.87960867136715 57.832921310795825 H 0.0 **** 0.06
30065 H 91.78175621980478 45.64963826393793 56.74803032257233 H 0.0 **** 0.06
30066 C 45.09267310708927 82.14845404891932 111.33069737754059 C 0.0 **** -0.24
30067 H 45.65274021997578 82.99217364266622 111.73693172165272 H 0.0 **** 0.06
30068 H 44.40916013123655 81.7677311041526 112.0897482264193 H 0.0 **** 0.06
30069 H 45.786212461992164 81.36054297041204 111.03741695091819 H 0.0 **** 0.06
30070 H 44.52498446520909 82.47544467449956 110.46039755391811 H 0.0 **** 0.06
30071 C 111.50140939239256 65.35527717221908 20.62066798416807 C 0.0 **** -0.24
30072 H 112.13333694606996 64.65685813745088 21.168014739340393 H 0.0 **** 0.06
30073 H 110.71907835734578 64.80449006580795 20.097486465791256 H 0.0 **** 0.06
30074 H 112.10636251497436 65.90227272289843 19.896577663306033 H 0.0 **** 0.06
30075 H 111.04696396587886 66.05785964039805 21.318904573853132 H 0.0 **** 0.06
30076 C 22.461610843294807 117.70731726242117 105.88100852257776 C 0.0 **** -0.24
30077 H 22.571978629898325 118.3114059577442 104.9810291498386 H 0.0 **** 0.06
30078 H 22.75716874258947 118.29371688281321 106.7508712302016 H 0.0 **** 0.06
30079 H 23.095396110685982 116.82352994682546 105.8058130285456 H 0.0 **** 0.06
30080 H 21.420259652537908 117.40010858358454 105.98654882719973 H 0.0 **** 0.06
30081 C 74.55604978511451 29.360310872921616 109.13692145235234 C 0.0 **** -0.24
30082 H 74.36463339270685 28.87526318663265 108.18100121411737 H 0.0 **** 0.06
30083 H 75.62942602688369 29.5048525683859 109.26287507481015 H 0.0 **** 0.06
30084 H 74.17563950222788 28.734753244125613 109.94468244525467 H 0.0 **** 0.06
30085 H 74.05376251741379 30.32814805061855 109.16064714845788 H 0.0 **** 0.06
30086 C 10.13189932474927 8.741565596178276 101.01934108290209 C 0.0 **** -0.24
30087 H 9.928587291428187 9.53957154898967 101.73278189497398 H 0.0 **** 0.06
30088 H 10.246896943569595 7.79820078674004 101.55338277374153 H 0.0 **** 0.06
30089 H 11.049673176397732 8.965889671023945 100.475569984235 H 0.0 **** 0.06
30090 H 9.302379405233125 8.663090846565353 100.31695478007089 H 0.0 **** 0.06
30091 C 117.13027007075269 9.171190547716648 64.10360349016878 C 0.0 **** -0.24
30092 H 116.66220841163684 9.912527926038422 64.75203263873016 H 0.0 **** 0.06
30093 H 116.52784733252366 9.04521553972532 63.20291909627019 H 0.0 **** 0.06
30094 H 117.19903172171541 8.21969045218242 64.63084113139087 H 0.0 **** 0.06
30095 H 118.12890093114007 9.508478431044665 63.82827759818076 H 0.0 **** 0.06
30096 C 77.34006717868564 30.123615647655853 54.65210894656019 C 0.0 **** -0.24
30097 H 76.80570536198485 29.273664719491777 54.2278543186963 H 0.0 **** 0.06
30098 H 78.1158619147397 29.764145423022164 55.32821235523818 H 0.0 **** 0.06
30099 H 76.64238114061965 30.754837872848306 55.20123893901609 H 0.0 **** 0.06
30100 H 77.7979382181287 30.7011670565486 53.84830817677809 H 0.0 **** 0.06
30101 C 35.29009758168715 47.64102595210619 44.69426118536597 C 0.0 **** -0.24
30102 H 36.145489071580215 47.16476371978763 45.17226197315579 H 0.0 **** 0.06
30103 H 34.368216918378124 47.251911458889026 45.12772761102089 H 0.0 **** 0.06
30104 H 35.30650976557516 47.42884849743956 43.62509351185148 H 0.0 **** 0.06
30105 H 35.33958597043991 48.71833508556517 44.85119121900585 H 0.0 **** 0.06
30106 C 63.06884342040514 58.526806362935815 94.46807017715045 C 0.0 **** -0.24
30107 H 63.579378854299954 58.724289766868054 93.52635370468874 H 0.0 **** 0.06
30108 H 63.4977250755502 59.15128707143336 95.2524696676551 H 0.0 **** 0.06
30109 H 63.18976887792699 57.47615160230424 94.73352786658774 H 0.0 **** 0.06
30110 H 62.00790991145498 58.7545206586347 94.36076470051864 H 0.0 **** 0.06
30111 C 115.39181075839569 103.76337992651713 96.30751066562618 C 0.0 **** -0.24
30112 H 115.12697170837437 104.05948892444496 95.29247279975746 H 0.0 **** 0.06
30113 H 115.0819681856978 102.73281619363175 96.47825038681688 H 0.0 **** 0.06
30114 H 114.88732431097343 104.41723946769315 97.01977910110983 H 0.0 **** 0.06
30115 H 116.47062507364674 103.84603201738156 96.44034306416324 H 0.0 **** 0.06
30116 C 84.70071493275421 27.085419279604935 47.521171014448015 C 0.0 **** -0.24
30117 H 84.60158420266936 26.01070869254272 47.36507347312207 H 0.0 **** 0.06
30118 H 85.74765790751567 27.33093333849513 47.69992614227175 H 0.0 **** 0.06
30119 H 84.10477719095852 27.383890787435007 48.38412706289586 H 0.0 **** 0.06
30120 H 84.34949383997125 27.614892026612722 46.63548682409268 H 0.0 **** 0.06
30121 C 55.133790908943155 105.77408121336933 86.75438916866389 C 0.0 **** -0.24
30122 H 54.39615867592349 105.20191656770481 86.1922482598857 H 0.0 **** 0.06
30123 H 56.035233588206694 105.17430704688815 86.88514178972639 H 0.0 **** 0.06
30124 H 54.725605775863585 106.03279828703401 87.73106028268356 H 0.0 **** 0.06
30125 H 55.37907054342301 106.68549462093623 86.21048885566665 H 0.0 **** 0.06
30126 C 21.725114609664303 110.86594250891775 51.23910165821326 C 0.0 **** -0.24
30127 H 22.12800579080077 110.59511434390689 50.262992571010955 H 0.0 **** 0.06
30128 H 20.888083000299844 110.2113969251073 51.48134383497717 H 0.0 **** 0.06
30129 H 21.38248630789475 111.90057549430455 51.21523578966517 H 0.0 **** 0.06
30130 H 22.50254898176965 110.75802826200871 51.9951766670946 H 0.0 **** 0.06
30131 C 114.67093020012115 77.67066198523528 23.325165113813114 C 0.0 **** -0.24
30132 H 113.73440113470232 78.07324620993603 23.710618561486164 H 0.0 **** 0.06
30133 H 115.22931839940637 77.20728729780964 24.139312960658266 H 0.0 **** 0.06
30134 H 115.2617672613682 78.4770128887861 22.89062982525285 H 0.0 **** 0.06
30135 H 114.45665188186916 76.92439756687739 22.56013743534482 H 0.0 **** 0.06
30136 C 34.49996404790155 39.76516080512076 113.64564987371693 C 0.0 **** -0.24
30137 H 35.16269939153403 39.040134205901836 114.11878141891731 H 0.0 **** 0.06
30138 H 34.79268504057078 39.898848731875916 112.60452449496302 H 0.0 **** 0.06
30139 H 34.57320260498816 40.71806909123595 114.16947906727563 H 0.0 **** 0.06
30140 H 33.47287365720753 39.40310118569582 113.69129293982076 H 0.0 **** 0.06
30141 C 72.76406909967324 97.03824504208671 48.31226427661285 C 0.0 **** -0.24
30142 H 72.4355923579592 96.27350365516435 49.0156082410903 H 0.0 **** 0.06
30143 H 73.18278734520104 96.5606980366839 47.4260481325802 H 0.0 **** 0.06
30144 H 73.52424021954178 97.66170303092545 48.783404550591726 H 0.0 **** 0.06
30145 H 71.91327597303896 97.65646067990346 48.024687077504886 H 0.0 **** 0.06
30146 C 10.113795014751219 10.187002876773192 6.8922663850312915 C 0.0 **** -0.24
30147 H 10.197209440635447 11.09033803239248 7.496094779759488 H 0.0 **** 0.06
30148 H 9.092475620613342 10.090871385101366 6.522208786847017 H 0.0 **** 0.06
30149 H 10.363602150594616 9.31844518681902 7.50179577353714 H 0.0 **** 0.06
30150 H 10.801632503240981 10.249729194925465 6.048744509575812 H 0.0 **** 0.06
30151 C 72.57573926343122 20.684867580894803 120.80265339763469 C 0.0 **** -0.24
30152 H 72.55106377753498 20.002321596420728 121.65251530656911 H 0.0 **** 0.06
30153 H 73.56515537984154 20.661441965885842 120.34629597308913 H 0.0 **** 0.06
30154 H 72.35708394189726 21.69671297193554 121.14416605268735 H 0.0 **** 0.06
30155 H 71.82867620302088 20.37939546476693 120.07044395474963 H 0.0 **** 0.06
30156 C 121.95090940204511 107.05203511807869 20.518021367230745 C 0.0 **** -0.24
30157 H 121.79784160415028 108.11757656432653 20.345432746161464 H 0.0 **** 0.06
30158 H 122.04334580043701 106.86678302564411 21.588128042954025 H 0.0 **** 0.06
30159 H 122.86206059419675 106.73079154320837 20.013293517704113 H 0.0 **** 0.06
30160 H 121.10153862792862 106.49426655148258 20.12379981192035 H 0.0 **** 0.06
30161 C 106.48396323044844 85.1904053256992 79.71798136814346 C 0.0 **** -0.24
30162 H 106.3030215689079 85.40701724565477 80.77056223994842 H 0.0 **** 0.06
30163 H 107.40482846740721 84.61549917597432 79.61908104461907 H 0.0 **** 0.06
30164 H 106.57797577153397 86.12515749512366 79.16551767063999 H 0.0 **** 0.06
30165 H 105.6510097188467 84.61381058137928 79.31689032576148 H 0.0 **** 0.06
30166 C 19.375233944206286 8.102879316365772 4.4174824996929 C 0.0 **** -0.24
30167 H 19.641458919682606 9.136171761133767 4.196489114190271 H 0.0 **** 0.06
30168 H 19.395338485420353 7.945452555168458 5.496087050820439 H 0.0 **** 0.06
30169 H 20.089296604678367 7.433187474614499 3.93841311979296 H 0.0 **** 0.06
30170 H 18.37356872805165 7.897317445320994 4.038870181556671 H 0.0 **** 0.06
30171 C 79.93337989547942 37.25364646771051 90.68200761426061 C 0.0 **** -0.24
30172 H 79.81973171045891 37.74476234478813 91.64837421517296 H 0.0 **** 0.06
30173 H 78.94839581975475 37.02820100886667 90.2720992132808 H 0.0 **** 0.06
30174 H 80.49429417796136 36.32782457895015 90.80980873794653 H 0.0 **** 0.06
30175 H 80.46995607025357 37.91347133808535 90.00031540233334 H 0.0 **** 0.06
30176 C 86.62509880866617 0.1435239029378117 65.6652689055187 C 0.0 **** -0.24
30177 H 86.348851029477 -0.9047547742383468 65.55541417322542 H 0.0 **** 0.06
30178 H 85.75472417125204 0.7170927213695517 65.98276203533251 H 0.0 **** 0.06
30179 H 86.98512684080697 0.5258929013067473 64.71010562227445 H 0.0 **** 0.06
30180 H 87.4134513933925 0.2347786500899698 66.413647821811 H 0.0 **** 0.06
30181 C 49.83792215941739 85.30826353148026 74.95696735607777 C 0.0 **** -0.24
30182 H 49.23687348024279 86.21679093464883 74.9150914609425 H 0.0 **** 0.06
30183 H 50.438353821237484 85.22791856444215 74.05045002543181 H 0.0 **** 0.06
30184 H 49.18081630128657 84.44143578801342 75.03677189167689 H 0.0 **** 0.06
30185 H 50.49518593317438 85.34700247551538 75.82643951297342 H 0.0 **** 0.06
30186 C 0.48464485362762844 84.12641725659915 95.6018616803789 C 0.0 **** -0.24
30187 H 0.3044871922477057 84.49564940083803 96.61096123563738 H 0.0 **** 0.06
30188 H 0.861116773393519 83.10374278416049 95.65228051983323 H 0.0 **** 0.06
30189 H 1.221834102153835 84.76065658182105 95.10951158128 H 0.0 **** 0.06
30190 H -0.446744698458474 84.14336151902415 95.03654541330746 H 0.0 **** 0.06
30191 C 11.909732945100387 17.881709565167142 77.09230487089383 C 0.0 **** -0.24
30192 H 12.784612595563488 17.25374025646961 76.92201303252725 H 0.0 **** 0.06
30193 H 11.627445194144983 17.83266106551036 78.14381235085284 H 0.0 **** 0.06
30194 H 11.082498914809591 17.52602765920936 76.47669179046031 H 0.0 **** 0.06
30195 H 12.144632096550339 18.912482372296168 76.82559720910751 H 0.0 **** 0.06
30196 C 35.46127761338872 32.107713418999026 71.30672393556378 C 0.0 **** -0.24
30197 H 34.62440919559879 32.514599525129654 71.87385270909405 H 0.0 **** 0.06
30198 H 35.65525877249604 31.084150935801404 71.62859087517495 H 0.0 **** 0.06
30199 H 36.34827999114556 32.71759973369666 71.4801183788293 H 0.0 **** 0.06
30200 H 35.21716249431448 32.114503481368445 70.24433377915685 H 0.0 **** 0.06
30201 C 104.01756275217019 6.035388129406954 115.0914341830995 C 0.0 **** -0.24
30202 H 104.24381242715287 7.085730005198187 115.27502382929225 H 0.0 **** 0.06
30203 H 104.65407107800775 5.66329552954636 114.28834800969173 H 0.0 **** 0.06
30204 H 102.97103682089494 5.934505456804487 114.80273827717565 H 0.0 **** 0.06
30205 H 104.20144015522487 5.459986037327766 115.99856407700858 H 0.0 **** 0.06
30206 C 79.71117284465501 97.99205120755454 56.69013709334382 C 0.0 **** -0.24
30207 H 79.89041499729814 98.90340477965191 56.1201625180355 H 0.0 **** 0.06
30208 H 80.04622353021773 98.13445750716792 57.71856148509033 H 0.0 **** 0.06
30209 H 80.26243528518935 97.16671847316624 56.23930925493514 H 0.0 **** 0.06
30210 H 78.64519057868998 97.76376738685633 56.683855732179836 H 0.0 **** 0.06
30211 C 82.09914793742152 108.21498892088084 51.34861041888969 C 0.0 **** -0.24
30212 H 81.19957308349524 107.88313038044186 50.831933516720625 H 0.0 **** 0.06
30213 H 81.92860077878206 109.20463666745454 51.775875321783744 H 0.0 **** 0.06
30214 H 82.92770716587407 108.26242389255142 50.64205918193371 H 0.0 **** 0.06
30215 H 82.3409951321812 107.51191109720907 52.14571934639328 H 0.0 **** 0.06
30216 C 57.268665406246015 71.6052031447106 91.83119283661964 C 0.0 **** -0.24
30217 H 57.92923167240525 71.23135963252341 92.61260968346272 H 0.0 **** 0.06
30218 H 57.86119785391807 72.09801188000915 91.05992892783604 H 0.0 **** 0.06
30219 H 56.56580897783229 72.3189756918631 92.26085400572566 H 0.0 **** 0.06
30220 H 56.71912345533892 70.77274961233485 91.39203355466643 H 0.0 **** 0.06
30221 C 10.74059276594383 70.68792679572982 0.37507166193955044 C 0.0 **** -0.24
30222 H 10.977891317938045 71.62532108389712 -0.12883063142594153 H 0.0 **** 0.06
30223 H 10.450913149718076 70.89378862412741 1.405686418569461 H 0.0 **** 0.06
30224 H 11.616552957817163 70.03914784810746 0.3655448517469182 H 0.0 **** 0.06
30225 H 9.918192984174397 70.19585559941754 -0.14346341322271527 H 0.0 **** 0.06
30226 C 53.695144033061865 92.93643497819488 65.06374112431024 C 0.0 **** -0.24
30227 H 54.3290974353921 92.18387302380398 65.5333087478678 H 0.0 **** 0.06
30228 H 52.66202436292696 92.78525231245555 65.37390814851418 H 0.0 **** 0.06
30229 H 53.76709475500286 92.8464249344562 63.98013031745569 H 0.0 **** 0.06
30230 H 54.02547499917779 93.92921214024801 65.3681997429635 H 0.0 **** 0.06
30231 C 56.23316819072509 32.927516231010756 79.11847378739216 C 0.0 **** -0.24
30232 H 56.860739780232 32.14099169356985 78.69996075973197 H 0.0 **** 0.06
30233 H 55.77259246701849 32.5730387717642 80.04081314171975 H 0.0 **** 0.06
30234 H 55.4550693961749 33.19223297087391 78.40168406275674 H 0.0 **** 0.06
30235 H 56.844827256617215 33.80509860316485 79.33134600079077 H 0.0 **** 0.06
30236 C 92.79437303346549 13.131637544595005 42.597023937412075 C 0.0 **** -0.24
30237 H 92.60999288883124 13.17462204432487 41.52373021828967 H 0.0 **** 0.06
30238 H 92.90756180472385 12.090970038748509 42.904402685512366 H 0.0 **** 0.06
30239 H 91.95401784978014 13.577796948315541 43.1283694482986 H 0.0 **** 0.06
30240 H 93.70578169791804 13.681011126254727 42.832759043479 H 0.0 **** 0.06
30241 C 64.92218639927668 118.20525150685759 38.98680916436983 C 0.0 **** -0.24
30242 H 64.75696855172691 119.22643817177224 39.33237546353689 H 0.0 **** 0.06
30243 H 64.20756755259134 117.53875117478975 39.47015620747264 H 0.0 **** 0.06
30244 H 65.9369156663463 117.89645419406929 39.240850391087974 H 0.0 **** 0.06
30245 H 64.78864315732372 118.16159540184088 37.90653679147158 H 0.0 **** 0.06
30246 C 49.27766458700978 122.63963871267075 53.24017572797709 C 0.0 **** -0.24
30247 H 48.3167070758785 122.1640624990296 53.043160312301666 H 0.0 **** 0.06
30248 H 49.221107467824766 123.19878000161027 54.17447679122171 H 0.0 **** 0.06
30249 H 49.52095779216887 123.31821042461475 52.423386952083376 H 0.0 **** 0.06
30250 H 50.05096503402959 121.87532116013517 53.32030845616089 H 0.0 **** 0.06
30251 C 19.336588611678906 109.17843073338679 121.88154936964031 C 0.0 **** -0.24
30252 H 19.956111145259968 108.77893530522013 122.68472269095452 H 0.0 **** 0.06
30253 H 19.89939358412383 109.92947449302187 121.32860915829687 H 0.0 **** 0.06
30254 H 18.440799238884807 109.6330580774385 122.30451804762762 H 0.0 **** 0.06
30255 H 19.049961776370395 108.37003422207204 121.20810202389222 H 0.0 **** 0.06
30256 C 81.54480217762594 52.305012446575745 103.72628877619385 C 0.0 **** -0.24
30257 H 81.63014071993226 51.56797766687339 104.52359304043276 H 0.0 **** 0.06
30258 H 82.48122331131722 52.85671168175969 103.6382002170391 H 0.0 **** 0.06
30259 H 80.73508822968029 52.99829026382906 103.95767679411657 H 0.0 **** 0.06
30260 H 81.33054697018198 51.7987663702998 102.78457077344135 H 0.0 **** 0.06
30261 C 80.6212210827253 3.9407374385610012 88.8474595932318 C 0.0 **** -0.24
30262 H 80.51170157657629 5.018001783105035 88.97906215412488 H 0.0 **** 0.06
30263 H 81.0849155165717 3.7389803464512568 87.88115852613416 H 0.0 **** 0.06
30264 H 79.63817601051045 3.469653881905245 88.88464676282035 H 0.0 **** 0.06
30265 H 81.24681264437532 3.539253369572819 89.64335515966292 H 0.0 **** 0.06
30266 C 48.382816039294056 117.63060640655166 25.969550970200373 C 0.0 **** -0.24
30267 H 49.33970399582043 117.7518167241906 25.463096080339767 H 0.0 **** 0.06
30268 H 47.78171140209894 116.891619325584 25.43870683030397 H 0.0 **** 0.06
30269 H 47.85582508587354 118.5851884712215 25.983615248615365 H 0.0 **** 0.06
30270 H 48.5524832670995 117.29504786053789 26.992515587717975 H 0.0 **** 0.06
30271 C 8.293573672160164 53.23046831713998 83.07626811980776 C 0.0 **** -0.24
30272 H 8.494239674488966 53.483115252362836 82.03490274922001 H 0.0 **** 0.06
30273 H 7.2345527941994305 53.37393490633326 83.28783649717013 H 0.0 **** 0.06
30274 H 8.885099650803681 53.87417249374829 83.72659805743854 H 0.0 **** 0.06
30275 H 8.562576461206987 52.18874463877421 83.25493396091417 H 0.0 **** 0.06
30276 C 65.84152870569059 91.18146135548446 82.51384384251722 C 0.0 **** -0.24
30277 H 65.61885372254525 91.71577125502705 81.59010365881491 H 0.0 **** 0.06
30278 H 64.99689054330494 91.27069185584523 83.1974793131256 H 0.0 **** 0.06
30279 H 66.7310871640951 91.61050313180255 82.9761403798293 H 0.0 **** 0.06
30280 H 66.02013971839395 90.1290943987814 82.2911825050106 H 0.0 **** 0.06
30281 C 6.100851352510645 108.09882918997852 23.267404466130017 C 0.0 **** -0.24
30282 H 5.566205765369546 107.149104290823 23.2488614136154 H 0.0 **** 0.06
30283 H 6.254138336330001 108.40988594261887 24.30167427142399 H 0.0 **** 0.06
30284 H 5.516318442860211 108.85568271603995 22.74367057783641 H 0.0 **** 0.06
30285 H 7.067016602265042 107.98133591399974 22.776079521166423 H 0.0 **** 0.06
30286 C 84.89143579975115 51.134527185981774 106.22238868022481 C 0.0 **** -0.24
30287 H 85.62383450390507 51.91123408209216 106.44297580142668 H 0.0 **** 0.06
30288 H 84.32023483492091 51.4147731359949 105.33696910064737 H 0.0 **** 0.06
30289 H 84.21616161818977 51.020555220700665 107.07008866895617 H 0.0 **** 0.06
30290 H 85.4068037005072 50.19138854931866 106.03896674990426 H 0.0 **** 0.06
30291 C 54.987590029419636 102.60066675452634 1.9331792167479591 C 0.0 **** -0.24
30292 H 55.26533997114416 101.68142324409592 1.4163982868414138 H 0.0 **** 0.06
30293 H 55.25088060340329 103.45895153726224 1.3148771514581625 H 0.0 **** 0.06
30294 H 55.52135316985172 102.65850565350422 2.882395085339411 H 0.0 **** 0.06
30295 H 53.91445169334858 102.60109687063272 2.1200427205041024 H 0.0 **** 0.06
30296 C 84.98545055708055 62.54375780536542 92.77355819104201 C 0.0 **** -0.24
30297 H 85.85619490420274 61.89876609100072 92.65257413866993 H 0.0 **** 0.06
30298 H 85.07921148346364 63.40761689285019 92.11540433306573 H 0.0 **** 0.06
30299 H 84.9234455484866 62.87876281962519 93.80877755376281 H 0.0 **** 0.06
30300 H 84.08398077783153 61.98786832664708 92.51654412095172 H 0.0 **** 0.06
30301 C 25.34886537622736 62.264732480153945 96.11854041755561 C 0.0 **** -0.24
30302 H 24.834230142530487 62.41171487486802 97.06859143395042 H 0.0 **** 0.06
30303 H 26.274379048763493 61.71438681094805 96.28915765368757 H 0.0 **** 0.06
30304 H 25.578022073544034 63.2337199239274 95.67605468538684 H 0.0 **** 0.06
30305 H 24.708028315124984 61.6979838637535 95.44320273316546 H 0.0 **** 0.06
30306 C 89.71009717026325 38.15799303389326 40.25618308902278 C 0.0 **** -0.24
30307 H 89.50803301192465 37.579235495091154 41.157472119720374 H 0.0 **** 0.06
30308 H 89.05336205792807 39.02781932688461 40.22941800157056 H 0.0 **** 0.06
30309 H 89.52862443324258 37.53789456345518 39.378683444551186 H 0.0 **** 0.06
30310 H 90.74868102086555 38.4867363328903 40.26059697281851 H 0.0 **** 0.06
30311 C 109.00124276267704 13.864483079717616 119.95648760540925 C 0.0 **** -0.24
30312 H 109.94498659819791 13.529223425691157 119.52684049308152 H 0.0 **** 0.06
30313 H 108.22175242598863 13.135672117975218 119.73492381607804 H 0.0 **** 0.06
30314 H 108.72983707293173 14.829507214974797 119.52928804811225 H 0.0 **** 0.06
30315 H 109.11001222715285 13.963453684076285 121.03644044802147 H 0.0 **** 0.06
30316 C 80.62614705871613 97.38740880104251 27.42618708341027 C 0.0 **** -0.24
30317 H 81.30454923365056 97.66805248651517 26.62021638511885 H 0.0 **** 0.06
30318 H 81.18266727920951 97.31868371321573 28.361608544933574 H 0.0 **** 0.06
30319 H 80.17500760560611 96.42059020000366 27.200410248944564 H 0.0 **** 0.06
30320 H 79.84492546211749 98.14075613834794 27.522684143219834 H 0.0 **** 0.06
30321 C 76.16123214455737 120.29478759633213 13.437169388650148 C 0.0 **** -0.24
30322 H 77.24806168633333 120.21613857561358 13.419965195078532 H 0.0 **** 0.06
30323 H 75.7909718434941 119.98795141840408 14.415507783244607 H 0.0 **** 0.06
30324 H 75.73800407429687 119.64828963667927 12.668850783865821 H 0.0 **** 0.06
30325 H 75.869169912568 121.32773844473563 13.245912051242158 H 0.0 **** 0.06
30326 C 117.95520336668916 106.30813641093138 66.33169138156757 C 0.0 **** -0.24
30327 H 118.65627689007952 107.00679911117177 66.78895881971141 H 0.0 **** 0.06
30328 H 116.94907755783959 106.72678952677495 66.37037739411701 H 0.0 **** 0.06
30329 H 117.97815510379121 105.36353871255687 66.87534986741295 H 0.0 **** 0.06
30330 H 118.23811688263065 106.13711735975636 65.29328465659998 H 0.0 **** 0.06
30331 C 109.94756763004153 110.19129965980423 62.52237841705664 C 0.0 **** -0.24
30332 H 109.2151068663803 110.96868973704088 62.302585140180355 H 0.0 **** 0.06
30333 H 109.43007581404774 109.27155169128858 62.79521908120793 H 0.0 **** 0.06
30334 H 110.58096530528536 110.51284640481958 63.34972553873757 H 0.0 **** 0.06
30335 H 110.56461646675717 110.0146071899969 61.64039500938759 H 0.0 **** 0.06
30336 C 118.9288322532617 26.9612762960393 89.1650144014412 C 0.0 **** -0.24
30337 H 119.79623539115596 26.45635085454549 89.59005465619714 H 0.0 **** 0.06
30338 H 119.02511126539699 28.03669906605319 89.31331925551098 H 0.0 **** 0.06
30339 H 118.02430884948399 26.605684335191 89.6585535623444 H 0.0 **** 0.06
30340 H 118.86929962498809 26.745008893195973 88.09820212997428 H 0.0 **** 0.06
30341 C 79.14401794102642 118.59107850161602 33.15587144171379 C 0.0 **** -0.24
30342 H 79.03135079617647 118.54752292181941 34.23908893909777 H 0.0 **** 0.06
30343 H 78.21218969406394 118.2838370663729 32.68040221554831 H 0.0 **** 0.06
30344 H 79.94705930704023 117.92334484291275 32.84654093645161 H 0.0 **** 0.06
30345 H 79.38412964027063 119.61204074722878 32.8569188272133 H 0.0 **** 0.06
30346 C 97.61458749394703 42.02140679504616 99.2734634062162 C 0.0 **** -0.24
30347 H 98.19058106027151 41.208219144895835 99.71539598018836 H 0.0 **** 0.06
30348 H 98.09984527690588 42.353090556680826 98.35525486620611 H 0.0 **** 0.06
30349 H 97.56105957903364 42.852137742484054 99.97786247146416 H 0.0 **** 0.06
30350 H 96.60741492148026 41.67242961490727 99.0461366533001 H 0.0 **** 0.06
30351 C 101.22245935452213 39.991054304348225 71.02829686837322 C 0.0 **** -0.24
30352 H 101.96283415628704 40.79140232013963 71.01911132193035 H 0.0 **** 0.06
30353 H 101.63077380292509 39.1124560498831 70.52929734657562 H 0.0 **** 0.06
30354 H 100.32411384844204 40.321855324894344 70.50852183711186 H 0.0 **** 0.06
30355 H 100.97377926599273 39.73974498450873 72.06008999276327 H 0.0 **** 0.06
30356 C 94.3713258755422 78.90098748903537 48.44711367173721 C 0.0 **** -0.24
30357 H 95.25855492679204 78.309809407957 48.21723480232316 H 0.0 **** 0.06
30358 H 94.36486883546132 79.14725073554592 49.50952410164285 H 0.0 **** 0.06
30359 H 93.47835260615199 78.32533618268042 48.20161317215371 H 0.0 **** 0.06
30360 H 94.38513722079648 79.81974533659655 47.86045413315588 H 0.0 **** 0.06
30361 C 55.07879045030802 26.290711932692737 116.76674095721651 C 0.0 **** -0.24
30362 H 55.0404323284543 26.832972184511185 117.71177938577088 H 0.0 **** 0.06
30363 H 54.126020193617194 26.396695841831495 116.24854471418735 H 0.0 **** 0.06
30364 H 55.271972398115054 25.23606619443207 116.962447930927 H 0.0 **** 0.06
30365 H 55.87762932934635 26.69738631604688 116.1472133322793 H 0.0 **** 0.06
30366 C 34.11919026394531 31.2303598763136 55.56814166406761 C 0.0 **** -0.24
30367 H 33.720186226642284 30.294099791119095 55.960031993743144 H 0.0 **** 0.06
30368 H 33.93521797023351 32.03208331177437 56.28358130317818 H 0.0 **** 0.06
30369 H 33.62929565604236 31.466122958326217 54.62399649007665 H 0.0 **** 0.06
30370 H 35.192402221426335 31.126959545984434 55.405354552462285 H 0.0 **** 0.06
30371 C 114.06827710028108 102.84574727072584 90.73899737701493 C 0.0 **** -0.24
30372 H 114.83143981407179 102.34688939522451 90.1410745896768 H 0.0 **** 0.06
30373 H 114.51234497875703 103.20611907634648 91.666344103319 H 0.0 **** 0.06
30374 H 113.26917012359488 102.1404533672048 90.96857680305152 H 0.0 **** 0.06
30375 H 113.66127132853839 103.68727299081942 90.17870203195145 H 0.0 **** 0.06
30376 C 113.02159737128761 68.2127402021782 84.50143966189032 C 0.0 **** -0.24
30377 H 112.8500874083854 68.41241345041092 83.44355589113638 H 0.0 **** 0.06
30378 H 113.25414312189565 67.15607306707932 84.6380018590971 H 0.0 **** 0.06
30379 H 112.12560946056529 68.46419199959666 85.06839711263109 H 0.0 **** 0.06
30380 H 113.85725622051844 68.81731903765973 84.85391355768164 H 0.0 **** 0.06
30381 C 9.298830303450217 116.83831651074419 69.37822671611542 C 0.0 **** -0.24
30382 H 8.71505077385595 117.74579031195312 69.53438344152917 H 0.0 **** 0.06
30383 H 9.447131383123775 116.68082715037937 68.30902228030445 H 0.0 **** 0.06
30384 H 8.765488118737693 115.98617445133317 69.80065683612926 H 0.0 **** 0.06
30385 H 10.266248195721545 116.94054468369242 69.86867863431542 H 0.0 **** 0.06
30386 C 51.750709747354875 94.93228291194052 29.389007501652557 C 0.0 **** -0.24
30387 H 51.36736484686759 94.70637628650215 30.38436474783269 H 0.0 **** 0.06
30388 H 52.830345185639004 94.78114737255927 29.37366048337755 H 0.0 **** 0.06
30389 H 51.5256952232148 95.96889726726232 29.139780240776787 H 0.0 **** 0.06
30390 H 51.2804140317692 94.27234011834133 28.660199869366664 H 0.0 **** 0.06
30391 C 57.03066304556978 77.63680967661685 29.44946560334398 C 0.0 **** -0.24
30392 H 57.22047075093246 76.62891957425177 29.820013529217988 H 0.0 **** 0.06
30393 H 56.446681565775975 78.18986153016101 30.184656985888495 H 0.0 **** 0.06
30394 H 56.47632085030273 77.58008374346332 28.511886214833453 H 0.0 **** 0.06
30395 H 57.97968331060372 78.14622681107062 29.279271875647026 H 0.0 **** 0.06
30396 C 29.770486745900712 28.51962718659192 83.30597617318821 C 0.0 **** -0.24
30397 H 29.39775436267695 29.436206231985267 82.84899746409334 H 0.0 **** 0.06
30398 H 30.47028743178977 28.769861978440943 84.1035748820301 H 0.0 **** 0.06
30399 H 30.279319754745956 27.919634138017813 82.55149327584678 H 0.0 **** 0.06
30400 H 28.93537753382293 27.953284390139743 83.71837473853967 H 0.0 **** 0.06
30401 C 50.80105021092194 43.62054310559199 57.9882016020199 C 0.0 **** -0.24
30402 H 51.042824466919086 44.68169450838939 58.03136340941941 H 0.0 **** 0.06
30403 H 51.70764348388289 43.03473314823351 58.14359633579255 H 0.0 **** 0.06
30404 H 50.377864865305156 43.38389943730525 57.011042879962986 H 0.0 **** 0.06
30405 H 50.07519191682465 43.38158309969755 58.764688507829284 H 0.0 **** 0.06
30406 C 73.04532806236261 104.14225676864473 86.38611879718476 C 0.0 **** -0.24
30407 H 72.79620581603331 103.25967571300612 86.97535891971935 H 0.0 **** 0.06
30408 H 74.1246457956824 104.18623821550753 86.2378554058082 H 0.0 **** 0.06
30409 H 72.71303783719685 105.03623180938138 86.9132799952857 H 0.0 **** 0.06
30410 H 72.54763394819926 104.08482532154846 85.41712734772099 H 0.0 **** 0.06
30411 C 41.8166837007351 55.52322169108993 8.669241518657287 C 0.0 **** -0.24
30412 H 40.82655436987946 55.62697620972273 9.11154227826205 H 0.0 **** 0.06
30413 H 42.529694123668435 55.2306632621268 9.440955785920693 H 0.0 **** 0.06
30414 H 42.12126083020851 56.47547546986763 8.234614481119792 H 0.0 **** 0.06
30415 H 41.78925024858697 54.76078170521106 7.890843294450292 H 0.0 **** 0.06
30416 C 22.80135824569608 65.99563013171183 24.643061613359635 C 0.0 **** -0.24
30417 H 22.010650440530128 65.29345041374748 24.381449567602374 H 0.0 **** 0.06
30418 H 22.663671019878777 66.92167017961651 24.08435577153631 H 0.0 **** 0.06
30419 H 23.7699773125438 65.5609535419 24.393124461172647 H 0.0 **** 0.06
30420 H 22.7621121486073 66.20615783741991 25.71132651480093 H 0.0 **** 0.06
30421 C 14.037561260193186 16.230178198301246 104.71147646355098 C 0.0 **** -0.24
30422 H 14.02292809455281 16.85644362838852 105.60423325291424 H 0.0 **** 0.06
30423 H 15.057369065176019 16.158979317160288 104.33402466738198 H 0.0 **** 0.06
30424 H 13.396349530625486 16.670801239629554 103.94860692282748 H 0.0 **** 0.06
30425 H 13.672283289848465 15.23347173461687 104.96173120452897 H 0.0 **** 0.06
30426 C 59.5576271736475 103.3807806504492 79.21957469761395 C 0.0 **** -0.24
30427 H 60.46878320966875 102.98878302455392 79.67144267129268 H 0.0 **** 0.06
30428 H 59.569556354419 103.17997398033583 78.14817536988355 H 0.0 **** 0.06
30429 H 59.50241269867242 104.4562097681337 79.38746360712878 H 0.0 **** 0.06
30430 H 58.691164647653544 102.89804438925881 79.67114916602549 H 0.0 **** 0.06
30431 C 118.12342909175565 55.12416902515997 114.91752357424423 C 0.0 **** -0.24
30432 H 117.1289315895141 55.44296499302021 114.60466737386332 H 0.0 **** 0.06
30433 H 118.26195855900723 55.350693319175804 115.97429621480012 H 0.0 **** 0.06
30434 H 118.87491861592609 55.65230193721493 114.33060598795498 H 0.0 **** 0.06
30435 H 118.22753012179483 54.05053272852123 114.7581113599814 H 0.0 **** 0.06
30436 C 80.7644946397638 84.02394980013568 12.174206311723232 C 0.0 **** -0.24
30437 H 81.00317589122284 85.08596826929781 12.235534844299611 H 0.0 **** 0.06
30438 H 79.72332929349395 83.90351545829259 11.873207179903087 H 0.0 **** 0.06
30439 H 80.91815176250816 83.55994494554918 13.147743179941504 H 0.0 **** 0.06
30440 H 81.41235047828675 83.547951904781 11.437591087034999 H 0.0 **** 0.06
30441 C 29.44059414795288 20.704227684662158 63.7058073394999 C 0.0 **** -0.24
30442 H 29.17084939088045 20.325044035963344 62.720422834051334 H 0.0 **** 0.06
30443 H 28.621403127247163 20.521185354451575 64.40147804479619 H 0.0 **** 0.06
30444 H 29.630945350539605 21.77626785744104 63.642859006324585 H 0.0 **** 0.06
30445 H 30.337840267469915 20.19615256832941 64.05738113478051 H 0.0 **** 0.06
30446 C 23.327394980669652 61.60944985864879 25.032761732242534 C 0.0 **** -0.24
30447 H 23.069768471922295 61.992223933241974 26.020565229415453 H 0.0 **** 0.06
30448 H 24.403846819690493 61.44675506326897 24.975937528487492 H 0.0 **** 0.06
30449 H 23.028604466418287 62.33428849478227 24.274563612482737 H 0.0 **** 0.06
30450 H 22.80729455736236 60.66820151913825 24.860709042037513 H 0.0 **** 0.06
30451 C 82.8226184443225 100.65701813603448 0.09322770425707105 C 0.0 **** -0.24
30452 H 81.76949854498477 100.59449534127941 0.36744752571010686 H 0.0 **** 0.06
30453 H 83.36341463435392 99.82030009696993 0.5370222642563274 H 0.0 **** 0.06
30454 H 83.23817231528903 101.59545025399709 0.45923484191957087 H 0.0 **** 0.06
30455 H 82.91764720794143 100.61609555925162 -0.9925177016219671 H 0.0 **** 0.06
30456 C 108.47148800493088 76.6958698820508 71.55810056729209 C 0.0 **** -0.24
30457 H 107.39416385313558 76.85272855546953 71.60626826415617 H 0.0 **** 0.06
30458 H 108.76933176827777 76.54093558139968 70.52089248437659 H 0.0 **** 0.06
30459 H 108.73801087772503 75.81869169109743 72.1480701708117 H 0.0 **** 0.06
30460 H 108.98397114027986 77.5709951628827 71.95584524545387 H 0.0 **** 0.06
30461 C 34.76312198735326 84.61397777742874 93.79205932529828 C 0.0 **** -0.24
30462 H 34.43051484365955 84.53035025685352 94.82649686884156 H 0.0 **** 0.06
30463 H 33.898690910692494 84.58273266887713 93.12970238151001 H 0.0 **** 0.06
30464 H 35.431717841688524 83.78506133095198 93.55775762123301 H 0.0 **** 0.06
30465 H 35.29232358283596 85.55754552205858 93.65582145206452 H 0.0 **** 0.06
30466 C 32.839288214626464 63.21422699646689 74.01501394251704 C 0.0 **** -0.24
30467 H 32.85086726864736 63.96472598371281 74.80506286162642 H 0.0 **** 0.06
30468 H 32.33827724172929 62.31530688977267 74.3754218001555 H 0.0 **** 0.06
30469 H 33.86239860040092 62.97083599344256 73.73016831200209 H 0.0 **** 0.06
30470 H 32.30431434194679 63.60636715232846 73.14986586137877 H 0.0 **** 0.06
30471 C 89.46274476406217 112.05434795268278 84.27633936489963 C 0.0 **** -0.24
30472 H 89.04681158683923 111.79217287859024 85.24981664949854 H 0.0 **** 0.06
30473 H 88.66100341107588 112.38787484340449 83.61763022161966 H 0.0 **** 0.06
30474 H 89.95010387802193 111.18080455790084 83.84301595764742 H 0.0 **** 0.06
30475 H 90.19223598527722 112.85495191717382 84.39656810607374 H 0.0 **** 0.06
30476 C 99.00066205714253 47.64016001296967 17.084808503414706 C 0.0 **** -0.24
30477 H 98.77298772866047 46.91162482951839 17.8635877218436 H 0.0 **** 0.06
30478 H 99.13165176085292 47.12481892171142 16.133260086058613 H 0.0 **** 0.06
30479 H 99.91694792430832 48.170499819764785 17.34153978874059 H 0.0 **** 0.06
30480 H 98.17861988030938 48.35148672594889 17.00370296734434 H 0.0 **** 0.06
30481 C 115.58032129110615 56.34938040034829 106.91997265852982 C 0.0 **** -0.24
30482 H 116.46483890562352 55.723408768087246 107.0383755364418 H 0.0 **** 0.06
30483 H 114.9156889383109 56.20224042041344 107.77127447984324 H 0.0 **** 0.06
30484 H 115.06180565127299 56.075294278253814 106.00141431123916 H 0.0 **** 0.06
30485 H 115.8811048322609 57.396223855769 106.86931482855118 H 0.0 **** 0.06
30486 C 5.651938104747103 16.167239951425984 104.48668309124338 C 0.0 **** -0.24
30487 H 6.019238363288935 16.097086199082128 105.51003886699738 H 0.0 **** 0.06
30488 H 4.58364594088988 15.951519266031255 104.46872291694413 H 0.0 **** 0.06
30489 H 6.179262460934581 15.44687230198025 103.86084314840033 H 0.0 **** 0.06
30490 H 5.825878119222807 17.1743855152273 104.1067964518171 H 0.0 **** 0.06
30491 C 10.329211580285346 31.9481353001714 45.887752872200146 C 0.0 **** -0.24
30492 H 10.568108768679906 32.909528666756984 46.34305396769352 H 0.0 **** 0.06
30493 H 11.154298101998563 31.635418134635238 45.24648348348358 H 0.0 **** 0.06
30494 H 9.421565739736934 32.04420240458379 45.291544610246824 H 0.0 **** 0.06
30495 H 10.174140608606251 31.204556460698406 46.66973154936298 H 0.0 **** 0.06
30496 C 33.26758264670851 96.27561682473737 62.94670099369404 C 0.0 **** -0.24
30497 H 34.07076671381148 95.56797516419903 62.740056880819026 H 0.0 **** 0.06
30498 H 33.02272143863833 96.24606950274159 64.00831017756894 H 0.0 **** 0.06
30499 H 32.38814851456071 96.00630499943014 62.362216736747 H 0.0 **** 0.06
30500 H 33.59109127213528 97.28008759699304 62.67585656715784 H 0.0 **** 0.06
30501 C 108.3039794311436 28.98697758040754 38.97697714281932 C 0.0 **** -0.24
30502 H 107.46030335647475 28.400686335314745 39.34085813548438 H 0.0 **** 0.06
30503 H 108.21701482669715 29.117141404902554 37.89801157469496 H 0.0 **** 0.06
30504 H 109.23377342469178 28.466428724642256 39.207133974902234 H 0.0 **** 0.06
30505 H 108.30345725104348 29.96341509235438 39.461641618911784 H 0.0 **** 0.06
30506 C 19.647204417149894 82.742336252422 0.5656393890384361 C 0.0 **** -0.24
30507 H 18.70357757051083 83.20184009595715 0.2697107161102341 H 0.0 **** 0.06
30508 H 20.431529579153505 83.49864732739351 0.5785500341364447 H 0.0 **** 0.06
30509 H 19.90809854942313 81.95952022603859 -0.14714283260907912 H 0.0 **** 0.06
30510 H 19.542347705400175 82.30812184842046 1.5600729308089054 H 0.0 **** 0.06
30511 C 92.08685052311873 84.13118907198174 7.4273710946232825 C 0.0 **** -0.24
30512 H 91.15697832416168 84.68201699268371 7.289109119658065 H 0.0 **** 0.06
30513 H 92.32445489009442 83.58577869614692 6.514314805073354 H 0.0 **** 0.06
30514 H 91.97334401790346 83.42764453122996 8.252186519940665 H 0.0 **** 0.06
30515 H 92.89178844443552 84.82985670092145 7.65378349025579 H 0.0 **** 0.06
30516 C 19.602394114120955 29.50940122176405 56.3698550492058 C 0.0 **** -0.24
30517 H 19.69496464646305 29.343931276037893 57.44332490579469 H 0.0 **** 0.06
30518 H 18.567258207842784 29.35582384016368 56.066173096017714 H 0.0 **** 0.06
30519 H 20.246177098381423 28.809007964888337 55.837903099107926 H 0.0 **** 0.06
30520 H 19.90298167437186 30.530054971433856 56.133146004380755 H 0.0 **** 0.06
30521 C 78.22592862644058 93.83518342475875 108.76236111781395 C 0.0 **** -0.24
30522 H 78.90694433136414 94.00349166121825 109.59639052661751 H 0.0 **** 0.06
30523 H 77.9407044660189 94.79396021651115 108.32729621418511 H 0.0 **** 0.06
30524 H 77.33594871015342 93.3183000798428 109.1179864148153 H 0.0 **** 0.06
30525 H 78.72217676465365 93.22666076038777 108.00637892249125 H 0.0 **** 0.06
30526 C 40.445409456901125 54.29835269745029 27.636525278129028 C 0.0 **** -0.24
30527 H 41.485365426078694 54.46525924813846 27.915295537788083 H 0.0 **** 0.06
30528 H 40.105950098130634 53.34744625663044 28.048869176500972 H 0.0 **** 0.06
30529 H 40.36050225411315 54.27406755286241 26.549652156335583 H 0.0 **** 0.06
30530 H 39.82941418868463 55.106248954370294 28.030364775390325 H 0.0 **** 0.06
30531 C 90.00466051188465 36.77981570434659 48.42652024446594 C 0.0 **** -0.24
30532 H 89.35615015675319 37.41749301434723 47.82544361178525 H 0.0 **** 0.06
30533 H 90.12041831137145 35.81385531996909 47.93494543016411 H 0.0 **** 0.06
30534 H 89.56160728686768 36.636117307902055 49.411949458046855 H 0.0 **** 0.06
30535 H 90.98082310258746 37.25268763696832 48.53270330718801 H 0.0 **** 0.06
30536 C 55.78224506873542 91.27451616682555 8.205378943753374 C 0.0 **** -0.24
30537 H 55.73353200559501 90.57432820780525 7.370773018834086 H 0.0 **** 0.06
30538 H 55.79556943164755 90.72079480962577 9.144657017904507 H 0.0 **** 0.06
30539 H 54.910931246080736 91.92838009236442 8.180858028294011 H 0.0 **** 0.06
30540 H 56.68864083535081 91.8740005445103 8.12308494463636 H 0.0 **** 0.06
30541 C 100.75849296077604 98.61636290326467 65.82793516063268 C 0.0 **** -0.24
30542 H 100.86876246422798 98.41796171113455 64.76220832517751 H 0.0 **** 0.06
30543 H 101.72404281539582 98.50114343257673 66.32041163776825 H 0.0 **** 0.06
30544 H 100.04518591067074 97.91203968034489 66.25657837762446 H 0.0 **** 0.06
30545 H 100.3957641922483 99.6332505569886 65.97162708063018 H 0.0 **** 0.06
30546 C 111.55552957979856 29.81212516463671 102.96293711581757 C 0.0 **** -0.24
30547 H 111.96213815911443 28.81228457591594 102.80625760013913 H 0.0 **** 0.06
30548 H 110.51039816541768 29.735327944449892 103.26183109566591 H 0.0 **** 0.06
30549 H 111.62944882457808 30.38345028851907 102.0381589689623 H 0.0 **** 0.06
30550 H 112.12261518967807 30.31530122838268 103.74700915915486 H 0.0 **** 0.06
30551 C 38.44118019886711 77.87040815926011 81.34489495385128 C 0.0 **** -0.24
30552 H 37.545108671702785 77.55245645013912 81.87829600665901 H 0.0 **** 0.06
30553 H 38.168804391694714 78.19890516119233 80.3417472651717 H 0.0 **** 0.06
30554 H 39.13853404438681 77.0358434336421 81.27758656595233 H 0.0 **** 0.06
30555 H 38.910899480356136 78.69414852853757 81.88176615952733 H 0.0 **** 0.06
30556 C 63.77969900367872 25.075648379973444 68.08095450955415 C 0.0 **** -0.24
30557 H 63.3777777124774 24.28237067351219 67.45038262258117 H 0.0 **** 0.06
30558 H 64.77440814729502 24.795633729422548 68.42641014150297 H 0.0 **** 0.06
30559 H 63.124356256157164 25.22485411226654 68.93871183387506 H 0.0 **** 0.06
30560 H 63.84082710084936 26.000370926006823 67.50575212171117 H 0.0 **** 0.06
30561 C 63.59345183717676 118.64904239910794 46.46395961664206 C 0.0 **** -0.24
30562 H 64.42395103747026 119.09699045477653 45.919585048472925 H 0.0 **** 0.06
30563 H 63.935764774378015 117.74585402090774 46.9694225265701 H 0.0 **** 0.06
30564 H 62.7962106441251 118.39389949780328 45.765229515406304 H 0.0 **** 0.06
30565 H 63.217556465770144 119.35842212350967 47.20065911959591 H 0.0 **** 0.06
30566 C 35.69643571309191 29.88203531221596 110.4062750011941 C 0.0 **** -0.24
30567 H 36.14476431035755 29.936798850243306 109.41479958913953 H 0.0 **** 0.06
30568 H 35.14405004653282 28.947202894923528 110.50423206241067 H 0.0 **** 0.06
30569 H 35.016644189042324 30.72235135378552 110.54484096675299 H 0.0 **** 0.06
30570 H 36.481086252823665 29.921426023662335 111.16233457114333 H 0.0 **** 0.06
30571 C 105.99118376155624 63.31773270225989 57.07728760302279 C 0.0 **** -0.24
30572 H 105.43313347955441 63.329417226441365 58.013133446459015 H 0.0 **** 0.06
30573 H 105.76546896965266 62.40210504477341 56.530337902019646 H 0.0 **** 0.06
30574 H 107.0592998216224 63.358415562851974 57.29138601690128 H 0.0 **** 0.06
30575 H 105.70797492494302 64.18090722018235 56.47512265616866 H 0.0 **** 0.06
30576 C 34.57044140632965 95.51808543015574 78.23981303391355 C 0.0 **** -0.24
30577 H 35.47611553651919 95.72984846271294 77.67044058789304 H 0.0 **** 0.06
30578 H 34.235928063114386 94.50273244903013 78.02594554540667 H 0.0 **** 0.06
30579 H 33.790424933421036 96.22552515696555 77.95822740083338 H 0.0 **** 0.06
30580 H 34.781437635045364 95.6136372848967 79.30488418618285 H 0.0 **** 0.06
30581 C 15.555338933964919 62.0249860496661 103.75069394495534 C 0.0 **** -0.24
30582 H 16.19449295166382 61.440107527067994 103.08810623813531 H 0.0 **** 0.06
30583 H 14.933230255175204 62.69436205935904 103.15647539693484 H 0.0 **** 0.06
30584 H 16.17629860552026 62.61113997221986 104.42832349583765 H 0.0 **** 0.06
30585 H 14.920269719915893 61.35395889579729 104.32875688398642 H 0.0 **** 0.06
30586 C 78.71144248030748 110.51965990181327 24.3715974562526 C 0.0 **** -0.24
30587 H 78.10470980385747 111.05682122937014 25.10106804176516 H 0.0 **** 0.06
30588 H 78.0619392547722 109.94208762733729 23.71358683727111 H 0.0 **** 0.06
30589 H 79.3930632581716 109.84745571155429 24.891245107704506 H 0.0 **** 0.06
30590 H 79.285589204578 111.23356564854589 23.78015066297189 H 0.0 **** 0.06
30591 C 63.34616880574966 122.07469475617208 83.90749752574362 C 0.0 **** -0.24
30592 H 63.028971453784386 121.29646099341531 83.21426372031345 H 0.0 **** 0.06
30593 H 63.899861405456555 122.84086315098428 83.36378925241371 H 0.0 **** 0.06
30594 H 63.987182406772625 121.63874673033548 84.67466249398188 H 0.0 **** 0.06
30595 H 62.471333143021575 122.52347895895487 84.37676436653504 H 0.0 **** 0.06
30596 C 58.695394358047565 116.09842136908676 18.24651064969811 C 0.0 **** -0.24
30597 H 58.62215955217624 115.64359305898174 19.234253018718732 H 0.0 **** 0.06
30598 H 58.433993387329735 115.36138652893908 17.48708895163969 H 0.0 **** 0.06
30599 H 59.715402679880924 116.44493467872434 18.081745201866 H 0.0 **** 0.06
30600 H 58.009762818356535 116.94332059106532 18.1842707121059 H 0.0 **** 0.06
30601 C 15.64256032298016 115.03905336083601 76.37511093423907 C 0.0 **** -0.24
30602 H 15.189460068036567 115.12381607181885 77.3627887991212 H 0.0 **** 0.06
30603 H 14.977207404828903 115.47613568916756 75.63071342727883 H 0.0 **** 0.06
30604 H 15.809214724269566 113.98702070996809 76.14133154634447 H 0.0 **** 0.06
30605 H 16.595531132478357 115.56796897649521 76.36551765452353 H 0.0 **** 0.06
30606 C 57.03696312022472 91.65161419725106 87.98519038008902 C 0.0 **** -0.24
30607 H 57.07462944426852 91.9056591749654 89.04454467930992 H 0.0 **** 0.06
30608 H 57.96670686115991 91.9564488771093 87.50563904857555 H 0.0 **** 0.06
30609 H 56.198685135397135 92.16736997947561 87.51771944564993 H 0.0 **** 0.06
30610 H 56.90753926365196 90.57433420651489 87.87483870768153 H 0.0 **** 0.06
30611 C 65.11690625699612 72.99007040943874 5.6984512132216025 C 0.0 **** -0.24
30612 H 64.65863450556188 72.91903809942252 4.712633037924007 H 0.0 **** 0.06
30613 H 64.47086344038246 72.511736129609 6.434712127207206 H 0.0 **** 0.06
30614 H 65.25235128110239 74.03933551417458 5.9612163711599635 H 0.0 **** 0.06
30615 H 66.08583843533631 72.4911062289776 5.6855942464598 H 0.0 **** 0.06
30616 C 56.27914555383561 46.015132313744 21.11890984939535 C 0.0 **** -0.24
30617 H 56.38383432553122 46.241267686476256 20.05769347507558 H 0.0 **** 0.06
30618 H 55.58210716462305 46.7182919947347 21.573243426068586 H 0.0 **** 0.06
30619 H 57.25102313750826 46.098690356697965 21.605596772435376 H 0.0 **** 0.06
30620 H 55.90097831660511 44.99960097295664 21.236874983194554 H 0.0 **** 0.06
30621 C 35.329214644690694 99.95331442711645 105.75727569224463 C 0.0 **** -0.24
30622 H 35.04717667742449 99.90237647426116 104.70656168269056 H 0.0 **** 0.06
30623 H 34.876456195662286 99.12118774837907 106.29684972075464 H 0.0 **** 0.06
30624 H 34.97960023454033 100.89510564632377 106.18158012989323 H 0.0 **** 0.06
30625 H 36.41416744567806 99.89690054671959 105.84594376118736 H 0.0 **** 0.06
30626 C 24.420866168196284 106.55064286009707 29.46890014897687 C 0.0 **** -0.24
30627 H 23.93332788458875 106.44187941258835 28.500067311571 H 0.0 **** 0.06
30628 H 25.034353108200293 107.45230649470989 29.468085402633307 H 0.0 **** 0.06
30629 H 25.051650872696257 105.68154859519382 29.657388822402197 H 0.0 **** 0.06
30630 H 23.663652281124257 106.62692019846568 30.249186008366138 H 0.0 **** 0.06
30631 C 10.570224079586499 61.773556589362556 117.27659171946269 C 0.0 **** -0.24
30632 H 9.954127115246486 62.589387883658276 116.89639302375133 H 0.0 **** 0.06
30633 H 10.43765023299089 61.69224849708229 118.35583698631523 H 0.0 **** 0.06
30634 H 11.61751352492589 61.97432146692995 117.05319666382691 H 0.0 **** 0.06
30635 H 10.269196272203814 60.83964930704104 116.80147846948591 H 0.0 **** 0.06
30636 C 106.80844759377075 40.236567199783785 110.23676320590542 C 0.0 **** -0.24
30637 H 107.63857765848653 39.62765777340104 109.87865076988064 H 0.0 **** 0.06
30638 H 105.87374532828684 39.692557223672075 110.0973106930916 H 0.0 **** 0.06
30639 H 106.77385623777008 41.169163980123656 109.67289189432648 H 0.0 **** 0.06
30640 H 106.94853431781499 40.45660533029002 111.29458455194472 H 0.0 **** 0.06
30641 C 77.18502403494904 2.3079615768395882 75.01503121389453 C 0.0 **** -0.24
30642 H 76.14035437881785 2.584079779903661 75.16389446507509 H 0.0 **** 0.06
30643 H 77.79876808822735 2.7896588648431475 75.77582623009198 H 0.0 **** 0.06
30644 H 77.50902973198322 2.632413353066383 74.02700925585779 H 0.0 **** 0.06
30645 H 77.28882147681105 1.2261310429306462 75.09483022707462 H 0.0 **** 0.06
30646 C 78.29530638206975 100.23506417353548 48.30074006255384 C 0.0 **** -0.24
30647 H 78.45594925372671 101.02356483131345 47.56559266043763 H 0.0 **** 0.06
30648 H 78.36552548827305 100.6541078019545 49.304859020454444 H 0.0 **** 0.06
30649 H 79.05299641360355 99.46214070548297 48.175311957234854 H 0.0 **** 0.06
30650 H 77.30568661183457 99.80051960278595 48.156272391094205 H 0.0 **** 0.06
30651 C 23.425964903543047 79.63874911366389 22.909657186901683 C 0.0 **** -0.24
30652 H 24.320199504691914 80.25213404957418 22.800466931576636 H 0.0 **** 0.06
30653 H 23.04108702121539 79.37705343586975 21.923898834163964 H 0.0 **** 0.06
30654 H 22.668461558729604 80.19632240917923 23.4597188064956 H 0.0 **** 0.06
30655 H 23.67587716671258 78.72862818722655 23.456580389206437 H 0.0 **** 0.06
30656 C 101.15920102304804 37.06959190071089 117.54241902107097 C 0.0 **** -0.24
30657 H 100.66802208430789 38.03661667179904 117.43404248577005 H 0.0 **** 0.06
30658 H 102.07028115167682 37.05595206767029 116.94364183262314 H 0.0 **** 0.06
30659 H 100.48770662839175 36.28154292489165 117.20065703730337 H 0.0 **** 0.06
30660 H 101.41001226828939 36.904923898651646 118.58994097986583 H 0.0 **** 0.06
30661 C 11.45746675796488 122.04242338619837 107.17168329155089 C 0.0 **** -0.24
30662 H 11.026711273410967 122.8754361359877 106.61626579830539 H 0.0 **** 0.06
30663 H 11.103459246881243 121.10205135468956 106.74664402897164 H 0.0 **** 0.06
30664 H 11.155224074284945 122.10640978833128 108.2161521195415 H 0.0 **** 0.06
30665 H 12.544842361147971 122.08433742899976 107.10471562065433 H 0.0 **** 0.06
30666 C 112.65205341630741 109.20699622092249 46.53483575720023 C 0.0 **** -0.24
30667 H 112.27052515635393 108.88725695921792 47.50450328666702 H 0.0 **** 0.06
30668 H 113.665934898303 109.59051951495863 46.65184168778458 H 0.0 **** 0.06
30669 H 112.01057919251409 109.99051485008803 46.13219885632839 H 0.0 **** 0.06
30670 H 112.6622458499692 108.35779095977114 45.85128130436826 H 0.0 **** 0.06
30671 C 22.287249803503045 106.59264398058443 90.02460160667638 C 0.0 **** -0.24
30672 H 22.771678488174274 107.55643655985486 90.17985887311013 H 0.0 **** 0.06
30673 H 22.431764867391536 106.27629644213769 88.99094410390884 H 0.0 **** 0.06
30674 H 21.220333158453087 106.68470879814129 90.23085664111244 H 0.0 **** 0.06
30675 H 22.724854276645857 105.85422468620118 90.6959251969075 H 0.0 **** 0.06
30676 C 38.50412253074617 5.325582139281572 92.89892213282954 C 0.0 **** -0.24
30677 H 37.77104045757022 5.086270503591187 93.67003095143465 H 0.0 **** 0.06
30678 H 38.83521743155964 6.3569624321319615 93.02142112251809 H 0.0 **** 0.06
30679 H 38.049229493969946 5.204598447952481 91.91660328831327 H 0.0 **** 0.06
30680 H 39.359305896647996 4.655770221098548 92.98975462460874 H 0.0 **** 0.06
30681 C 52.14643890396252 49.708537904498655 7.503705329661557 C 0.0 **** -0.24
30682 H 53.04200425563545 49.369680258480685 8.024941696968284 H 0.0 **** 0.06
30683 H 52.22597619290184 50.77752500469575 7.302803359031714 H 0.0 **** 0.06
30684 H 51.27093979292141 49.51922195002322 8.125844363220978 H 0.0 **** 0.06
30685 H 52.04768384721723 49.167586054071705 6.562354870603542 H 0.0 **** 0.06
30686 C 56.97039913308068 45.24535513526055 77.55245905221977 C 0.0 **** -0.24
30687 H 56.49511570903129 45.02836696470472 76.59585258757087 H 0.0 **** 0.06
30688 H 58.03163041524099 45.44276063072707 77.39467605216711 H 0.0 **** 0.06
30689 H 56.855201419930516 44.389206708129834 78.21737370970556 H 0.0 **** 0.06
30690 H 56.50048856979863 46.11984741118393 78.00106174763155 H 0.0 **** 0.06
30691 C 116.50153769872229 57.79269457885158 110.31932386492684 C 0.0 **** -0.24
30692 H 116.8839721314152 57.43002201573637 111.27382514200826 H 0.0 **** 0.06
30693 H 115.44331072626468 57.544622224485664 110.23521125744412 H 0.0 **** 0.06
30694 H 117.05135408568559 57.32011832524819 109.50558881163897 H 0.0 **** 0.06
30695 H 116.62816976262638 58.87359757778799 110.26484345738982 H 0.0 **** 0.06
30696 C 44.147271232254866 41.295279479394 12.677911607904026 C 0.0 **** -0.24
30697 H 45.09932733508879 40.8951524478415 13.02827531839598 H 0.0 **** 0.06
30698 H 43.38440134581765 41.13853896994135 13.44025867873496 H 0.0 **** 0.06
30699 H 43.85516340235199 40.785976203950895 11.760285189659712 H 0.0 **** 0.06
30700 H 44.253234241248606 42.36276245564835 12.482657649948337 H 0.0 **** 0.06
30701 C 3.3144047908896255 83.93835073733038 31.993732094225038 C 0.0 **** -0.24
30702 H 4.240769453375805 84.25658560142787 32.47313304997584 H 0.0 **** 0.06
30703 H 2.7136323091718566 84.81379137743306 31.74988754003482 H 0.0 **** 0.06
30704 H 2.758597146131123 83.29229726368354 32.67347904335361 H 0.0 **** 0.06
30705 H 3.548247403470782 83.39054216311362 31.08083914851227 H 0.0 **** 0.06
30706 C 18.083578043906954 73.3119262286393 79.15200636894212 C 0.0 **** -0.24
30707 H 17.374349116490208 73.94565863151348 78.62022665819757 H 0.0 **** 0.06
30708 H 19.07018071950384 73.77600942052464 79.13121836327684 H 0.0 **** 0.06
30709 H 18.131154238088016 72.33547103015397 78.66905509964317 H 0.0 **** 0.06
30710 H 17.759685522008994 73.19120112805402 80.18540908545083 H 0.0 **** 0.06
30711 C 61.636802251656604 42.662669570020114 25.564992720492654 C 0.0 **** -0.24
30712 H 61.519193487052064 43.68567979461153 25.207240847290876 H 0.0 **** 0.06
30713 H 61.71679205643886 41.98750484528313 24.71145156527035 H 0.0 **** 0.06
30714 H 60.77159238097505 42.386035441933956 26.166931696956624 H 0.0 **** 0.06
30715 H 62.53946608961064 42.59103580858533 26.170632591021615 H 0.0 **** 0.06
30716 C 59.7097744621427 38.54175769747623 49.93037771595692 C 0.0 **** -0.24
30717 H 60.68382611896917 38.1304419308064 50.19297774072916 H 0.0 **** 0.06
30718 H 59.84556738634202 39.47780386608153 49.388059528826005 H 0.0 **** 0.06
30719 H 59.13647892430243 38.726567365120985 50.83876515307125 H 0.0 **** 0.06
30720 H 59.17335724956653 37.830743990758606 49.30080778518183 H 0.0 **** 0.06
30721 C 101.15938260827522 41.31965993618391 13.85952558029021 C 0.0 **** -0.24
30722 H 101.12092878316037 40.886851773429754 14.85994629802235 H 0.0 **** 0.06
30723 H 101.6713240684092 42.28096758636494 13.899956473411521 H 0.0 **** 0.06
30724 H 100.14457604218933 41.46312605329811 13.487790104979723 H 0.0 **** 0.06
30725 H 101.69949279478817 40.646607101592906 13.193300375343227 H 0.0 **** 0.06
30726 C 0.19759277101655925 38.28328484926928 112.7844318237298 C 0.0 **** -0.24
30727 H 0.20738085935674633 37.33461890398863 113.32024633852117 H 0.0 **** 0.06
30728 H 0.7113408738417348 38.167055740787816 111.82897751566169 H 0.0 **** 0.06
30729 H 0.7047749575203 39.042382140402964 113.379526466159 H 0.0 **** 0.06
30730 H -0.8330750217822072 38.590101439706956 112.60757711813716 H 0.0 **** 0.06
30731 C 26.356465560707846 8.149863633376725 30.240764284249295 C 0.0 **** -0.24
30732 H 26.965716351501158 7.362142893122979 29.795309740302358 H 0.0 **** 0.06
30733 H 26.036457606180022 8.844372950930165 29.46384224175562 H 0.0 **** 0.06
30734 H 26.94380796853332 8.683874047423728 30.988265419338163 H 0.0 **** 0.06
30735 H 25.48110066456252 7.706209165091167 30.71504177325152 H 0.0 **** 0.06
30736 C 96.70636518894426 23.025785510787387 44.60026834095544 C 0.0 **** -0.24
30737 H 97.42445939532368 23.49936816156591 43.931511837323626 H 0.0 **** 0.06
30738 H 96.44435574694467 23.716987559017042 45.40221783408248 H 0.0 **** 0.06
30739 H 97.1464457549313 22.124364003205642 45.0260552103523 H 0.0 **** 0.06
30740 H 95.80867263780772 22.762014631972022 44.03970681647701 H 0.0 **** 0.06
30741 C 73.2953454039743 15.375038412101048 91.48775003954586 C 0.0 **** -0.24
30742 H 73.25856894410964 14.554653083090102 90.77028394910238 H 0.0 **** 0.06
30743 H 72.61271520688064 16.164395199909904 91.17133091059668 H 0.0 **** 0.06
30744 H 74.31038663237655 15.769906314110187 91.53559141145192 H 0.0 **** 0.06
30745 H 73.00015683452747 15.010491229011336 92.47172015895333 H 0.0 **** 0.06
30746 C 10.052951389549015 68.52748803334086 88.16903418162016 C 0.0 **** -0.24
30747 H 9.432966415543145 68.74939086938042 89.03874275289652 H 0.0 **** 0.06
30748 H 9.426917239362552 68.13066776556201 87.36982829593859 H 0.0 **** 0.06
30749 H 10.80771748418099 67.78943285661 88.44048735731934 H 0.0 **** 0.06
30750 H 10.541658170781957 69.44052205506102 87.82981941994962 H 0.0 **** 0.06
30751 C 9.608875191281978 14.325363993666627 65.699351988621 C 0.0 **** -0.24
30752 H 9.661159394672598 13.301276507888048 65.32997778425013 H 0.0 **** 0.06
30753 H 10.25060213503065 14.964176463879568 65.09141666033844 H 0.0 **** 0.06
30754 H 9.943939677874958 14.355218694265773 66.73609140112276 H 0.0 **** 0.06
30755 H 8.580628743654792 14.681234371907095 65.64025369453168 H 0.0 **** 0.06
30756 C 41.13048068351105 22.280933906673354 116.01017094362955 C 0.0 **** -0.24
30757 H 40.983549674711924 22.082898653745815 117.07242162333118 H 0.0 **** 0.06
30758 H 40.164458462174935 22.441395822894236 115.5333008638149 H 0.0 **** 0.06
30759 H 41.62696699348203 21.427268327243553 115.54828505043676 H 0.0 **** 0.06
30760 H 41.74855076294557 23.17004563258014 115.88930411085835 H 0.0 **** 0.06
30761 C 110.69337622851938 115.12521212134479 71.76066976068026 C 0.0 **** -0.24
30762 H 110.51930083998963 114.27741214640545 72.42173479365354 H 0.0 **** 0.06
30763 H 110.91567881446304 114.76300260791496 70.75613949909686 H 0.0 **** 0.06
30764 H 111.53734511145765 115.70727966878255 72.13147301122777 H 0.0 **** 0.06
30765 H 109.80358651200723 115.75359417989606 71.73159501466787 H 0.0 **** 0.06
30766 C 113.64080206774236 112.80366998302253 90.72230476472964 C 0.0 **** -0.24
30767 H 113.48822884128413 111.73903108323259 90.54606193312077 H 0.0 **** 0.06
30768 H 113.21716749297681 113.07603026720514 91.68907296966017 H 0.0 **** 0.06
30769 H 113.14917245745758 113.3758797726532 89.93496337517831 H 0.0 **** 0.06
30770 H 114.70903548153467 113.02268438909923 90.71780489804155 H 0.0 **** 0.06
30771 C 2.8284563952074677 38.33674975721198 66.46322266440035 C 0.0 **** -0.24
30772 H 3.3442264311043175 38.65568987927402 67.36965835882498 H 0.0 **** 0.06
30773 H 2.910088296777161 37.2548905184673 66.36168986293978 H 0.0 **** 0.06
30774 H 3.283637386031984 38.81856029919679 65.59766156315749 H 0.0 **** 0.06
30775 H 1.7774669780886825 38.618402510779326 66.52535222233666 H 0.0 **** 0.06
30776 C 35.636111308579046 75.373748257687 54.74941874003909 C 0.0 **** -0.24
30777 H 34.85561239605826 75.81477684599946 54.13041527376532 H 0.0 **** 0.06
30778 H 36.61409025701917 75.65916528884986 54.35785316712639 H 0.0 **** 0.06
30779 H 35.54205587646956 74.28796935418586 54.734828659957856 H 0.0 **** 0.06
30780 H 35.53534378052407 75.73292892573693 55.77319324464557 H 0.0 **** 0.06
30781 C 88.40036832674014 41.725153822137884 39.08504615341835 C 0.0 **** -0.24
30782 H 88.52810192237655 41.80547657081465 38.00505190699505 H 0.0 **** 0.06
30783 H 89.13790367443085 41.0306096834733 39.48697919288347 H 0.0 **** 0.06
30784 H 87.39813381988438 41.35941048112994 39.3053773989088 H 0.0 **** 0.06
30785 H 88.53794322192414 42.705575564724114 39.540673703496225 H 0.0 **** 0.06
30786 C 4.333747641465642 26.261530505797055 111.6883739590265 C 0.0 **** -0.24
30787 H 4.924640597221405 25.346922141249564 111.72711839386832 H 0.0 **** 0.06
30788 H 3.9573440080226394 26.49271929989979 112.68491607158765 H 0.0 **** 0.06
30789 H 3.495414834990207 26.1242901053553 111.00630633946398 H 0.0 **** 0.06
30790 H 4.958661651740549 27.08269086415774 111.33593201094399 H 0.0 **** 0.06
30791 C 119.30787333022292 82.61821614187838 71.16019163967374 C 0.0 **** -0.24
30792 H 120.20718038528291 82.00935574675086 71.0663834412766 H 0.0 **** 0.06
30793 H 118.52645186240504 82.03583369796104 71.64986846123941 H 0.0 **** 0.06
30794 H 118.96945476420841 82.9210620624934 70.17044812468566 H 0.0 **** 0.06
30795 H 119.52879042735259 83.50345284592461 71.75603281667429 H 0.0 **** 0.06
30796 C 64.19456615488932 40.5317363005766 29.820813118456883 C 0.0 **** -0.24
30797 H 64.36372225133286 41.60765046686953 29.87111308013317 H 0.0 **** 0.06
30798 H 64.27553196350271 40.200449788005244 28.78550450875973 H 0.0 **** 0.06
30799 H 63.1988504714551 40.30232912475975 30.19999347238157 H 0.0 **** 0.06
30800 H 64.94188500808929 40.01875521723707 30.42673976974597 H 0.0 **** 0.06
30801 C 57.353130875776365 72.3573339564754 76.84223279606621 C 0.0 **** -0.24
30802 H 56.51258718000627 71.67600438994427 76.70975088784834 H 0.0 **** 0.06
30803 H 57.07390576815539 73.35126257373793 76.49184529391192 H 0.0 **** 0.06
30804 H 58.207623804350625 71.99576813255555 76.26936878735734 H 0.0 **** 0.06
30805 H 57.61797230596253 72.40498122367086 77.89823130592777 H 0.0 **** 0.06
30806 C 55.83370624415309 116.43924892598585 26.322238463859293 C 0.0 **** -0.24
30807 H 55.47694144188071 115.48276596424995 26.70268856705195 H 0.0 **** 0.06
30808 H 55.3853469361959 116.63109250140997 25.34665802878527 H 0.0 **** 0.06
30809 H 56.9185443519861 116.40827553570426 26.22274455753248 H 0.0 **** 0.06
30810 H 55.55353240625692 117.23332263346293 27.013634616446808 H 0.0 **** 0.06
30811 C 84.50960051847238 26.218674827503094 28.083110337546316 C 0.0 **** -0.24
30812 H 84.65682381316293 27.16369497528399 27.55971050630467 H 0.0 **** 0.06
30813 H 84.03884618032359 25.502084355636214 27.409440815744972 H 0.0 **** 0.06
30814 H 83.86830283209488 26.379499725019457 28.948769432876958 H 0.0 **** 0.06
30815 H 85.47359851754504 25.831175717986696 28.410618122909597 H 0.0 **** 0.06
30816 C 67.02015503686411 71.9448215966124 59.48460216239439 C 0.0 **** -0.24
30817 H 67.87435014561717 72.455517679075 59.931247950038305 H 0.0 **** 0.06
30818 H 66.83472009211738 72.34986178818829 58.48990600761572 H 0.0 **** 0.06
30819 H 66.13977272803325 72.097328935577 60.109697903204726 H 0.0 **** 0.06
30820 H 67.23231133232508 70.87864225940433 59.41046439463323 H 0.0 **** 0.06
30821 C 78.8324862136405 87.48982420606731 84.71071282556437 C 0.0 **** -0.24
30822 H 78.41727782747495 86.95600628796004 83.85567740257738 H 0.0 **** 0.06
30823 H 78.11269507969604 87.47978142403565 85.53001501065594 H 0.0 **** 0.06
30824 H 79.04543200959597 88.5205069007354 84.4271085255273 H 0.0 **** 0.06
30825 H 79.75365569087211 87.00346916872306 85.03003968505763 H 0.0 **** 0.06
30826 C 95.63233356914981 26.027800999863075 39.76585543677703 C 0.0 **** -0.24
30827 H 95.09023194953141 26.62475418809896 39.032542511010206 H 0.0 **** 0.06
30828 H 96.60650257665299 26.481052689563853 39.9537540033694 H 0.0 **** 0.06
30829 H 95.76982261359518 25.01696416604119 39.38129619068269 H 0.0 **** 0.06
30830 H 95.06309735677235 25.989527699924565 40.69499291663948 H 0.0 **** 0.06
30831 C 53.72844828724257 39.345230394025705 100.72130533105585 C 0.0 **** -0.24
30832 H 52.735814819394335 39.48907721274151 101.14926687076473 H 0.0 **** 0.06
30833 H 54.46409041259429 39.882428094699655 101.31974865403939 H 0.0 **** 0.06
30834 H 53.741588818124285 39.72692706069829 99.70029743566599 H 0.0 **** 0.06
30835 H 53.97047830886186 38.28238084751167 100.71427333599246 H 0.0 **** 0.06
30836 C 95.23743353206092 105.99932588651046 38.122762512830064 C 0.0 **** -0.24
30837 H 96.11882546218482 106.45797295214481 38.57215913389672 H 0.0 **** 0.06
30838 H 95.16360259532513 106.30386674423312 37.077951006442504 H 0.0 **** 0.06
30839 H 94.34628581709495 106.3224044200515 38.66019725219647 H 0.0 **** 0.06
30840 H 95.32423829056248 104.91488793230303 38.18019348163054 H 0.0 **** 0.06
30841 C 87.81801276250184 45.77831460504771 76.45614599051277 C 0.0 **** -0.24
30842 H 86.9509085277441 45.117485300757345 76.45946745767597 H 0.0 **** 0.06
30843 H 88.71573378737824 45.19980485115581 76.6751747105182 H 0.0 **** 0.06
30844 H 87.68874695690212 46.54961270309992 77.21528873976948 H 0.0 **** 0.06
30845 H 87.91550986252793 46.24508980591351 75.4764055603633 H 0.0 **** 0.06
30846 C 45.53010894868257 87.9118610218697 65.9203296836165 C 0.0 **** -0.24
30847 H 46.434984237113184 87.31222057313357 65.81916545297196 H 0.0 **** 0.06
30848 H 44.65785445184747 87.25717474576925 65.9071317287345 H 0.0 **** 0.06
30849 H 45.4679924875293 88.61689144210192 65.09214751217121 H 0.0 **** 0.06
30850 H 45.560382236208085 88.45892930598967 66.86221710147976 H 0.0 **** 0.06
30851 C 0.5805607065115748 98.43206862634227 65.1347869788357 C 0.0 **** -0.24
30852 H -0.11504895308048901 98.54551697259473 65.96626626496524 H 0.0 **** 0.06
30853 H 1.603424670401072 98.48201593568223 65.50753177558329 H 0.0 **** 0.06
30854 H 0.4174318269664745 99.23196493683938 64.41299271942302 H 0.0 **** 0.06
30855 H 0.415246795726949 97.46812756231671 64.65194937584104 H 0.0 **** 0.06
30856 C 115.31969644485048 113.41058891807216 63.70170248472422 C 0.0 **** -0.24
30857 H 115.67765535206436 112.47815913591589 64.13877373568599 H 0.0 **** 0.06
30858 H 115.11066431236232 113.25958672507478 62.64299384062056 H 0.0 **** 0.06
30859 H 116.08250323277949 114.18131378525865 63.81596603765601 H 0.0 **** 0.06
30860 H 114.40841615652926 113.72433148291208 64.2116691644483 H 0.0 **** 0.06
30861 C 110.76197551015721 32.33935245988715 10.076984312492698 C 0.0 **** -0.24
30862 H 111.08728779535915 31.299809375273924 10.127325866759378 H 0.0 **** 0.06
30863 H 111.62208401013501 32.996136234831766 10.211626935422174 H 0.0 **** 0.06
30864 H 110.03174991411342 32.529379760187965 10.862933595146046 H 0.0 **** 0.06
30865 H 110.3072663205244 32.53037243335433 9.10436767958825 H 0.0 **** 0.06
30866 C 72.7960863127858 98.19671611547673 93.9934097898165 C 0.0 **** -0.24
30867 H 73.6439680796791 98.08084412026577 93.3176225672479 H 0.0 **** 0.06
30868 H 71.96286494581443 97.58994834173484 93.63781002244065 H 0.0 **** 0.06
30869 H 72.49677510323863 99.24473604975708 94.02295950185348 H 0.0 **** 0.06
30870 H 73.08209489812032 97.87235261816869 94.99378997830496 H 0.0 **** 0.06
30871 C 61.850991114626936 27.387115864507457 21.253984170185845 C 0.0 **** -0.24
30872 H 61.243792551917636 27.464764495736645 22.156174702204908 H 0.0 **** 0.06
30873 H 61.77047849181565 28.311821212790484 20.68178323154848 H 0.0 **** 0.06
30874 H 61.49689886065801 26.5534246420007 20.648078468580053 H 0.0 **** 0.06
30875 H 62.891632148736676 27.220079752314454 21.52995562312185 H 0.0 **** 0.06
30876 C 82.33140821547607 87.21310210625279 112.25793178311761 C 0.0 **** -0.24
30877 H 82.21174111191183 87.43445710742182 111.19724856384943 H 0.0 **** 0.06
30878 H 83.14528335280565 86.50080853812048 112.38961779885915 H 0.0 **** 0.06
30879 H 81.40642501742425 86.78579750029891 112.64527270853381 H 0.0 **** 0.06
30880 H 82.56095793766369 88.13258827789826 112.79676780270916 H 0.0 **** 0.06
30881 C 73.89405278197512 23.160272368863986 62.297057153376876 C 0.0 **** -0.24
30882 H 74.98254513934972 23.119587839991226 62.261164716029846 H 0.0 **** 0.06
30883 H 73.570929592158 23.319500983922936 63.326486538300834 H 0.0 **** 0.06
30884 H 73.48330540259383 22.220733276031865 61.92840966524586 H 0.0 **** 0.06
30885 H 73.54008726091894 23.98096440149976 61.673383272616825 H 0.0 **** 0.06
30886 C 73.56140534736576 56.860019558470896 93.12625077624676 C 0.0 **** -0.24
30887 H 73.46852202710934 57.48991560922616 92.24249815856342 H 0.0 **** 0.06
30888 H 74.6111234710198 56.780718177793176 93.40833101712951 H 0.0 **** 0.06
30889 H 73.16823665296982 55.866945996113685 92.90795184150141 H 0.0 **** 0.06
30890 H 72.99658025354105 57.3014680093205 93.94811820978612 H 0.0 **** 0.06
30891 C 10.60796437802604 55.84971012564271 86.26921220654111 C 0.0 **** -0.24
30892 H 10.130243955692038 56.81060073561083 86.07847271896318 H 0.0 **** 0.06
30893 H 11.433123623711523 55.7091876456518 85.57101325082704 H 0.0 **** 0.06
30894 H 9.879436648953828 55.04951540313059 86.13803334923648 H 0.0 **** 0.06
30895 H 10.98903516064442 55.83015001910156 87.29094929123377 H 0.0 **** 0.06
30896 C 107.75923008534073 64.58770467759746 104.75987473351867 C 0.0 **** -0.24
30897 H 108.57313268654269 65.1905005482138 104.35672484089875 H 0.0 **** 0.06
30898 H 106.897745861141 65.22672649758678 104.95729877166835 H 0.0 **** 0.06
30899 H 108.08211169432397 64.11585970206727 105.6879662821577 H 0.0 **** 0.06
30900 H 107.48435774742879 63.819052191308174 104.03778148090805 H 0.0 **** 0.06
30901 C 106.24757802668404 40.58255933418704 26.459952009577705 C 0.0 **** -0.24
30902 H 107.24532580583849 40.32805220585624 26.105073840653574 H 0.0 **** 0.06
30903 H 106.32549612765862 41.15806046917987 27.38249542675223 H 0.0 **** 0.06
30904 H 105.6853276358749 39.667146547917014 26.64912959181177 H 0.0 **** 0.06
30905 H 105.73289191294873 41.17505825943712 25.7039458431927 H 0.0 **** 0.06
30906 C 2.883676492838859 5.961201057567138 30.119068333827812 C 0.0 **** -0.24
30907 H 3.581029835866559 5.503226293742387 29.417015910355502 H 0.0 **** 0.06
30908 H 2.120324508627178 6.508869148800159 29.56648392104671 H 0.0 **** 0.06
30909 H 3.4245780138318764 6.64790773581683 30.77140160717667 H 0.0 **** 0.06
30910 H 2.4120728885637703 5.184943358940956 30.721063445848046 H 0.0 **** 0.06
30911 C 42.69635859005183 117.35319218598042 27.009858607455897 C 0.0 **** -0.24
30912 H 42.24645189165804 117.81290933208368 27.89059540844859 H 0.0 **** 0.06
30913 H 43.26945365064708 118.10150012499828 26.462864657431453 H 0.0 **** 0.06
30914 H 41.91171702873069 116.95400043528093 26.367664199103302 H 0.0 **** 0.06
30915 H 43.35847616901572 116.54385739995142 27.321192463692043 H 0.0 **** 0.06
30916 C 87.61968569305455 89.9163145368156 6.446766453834218 C 0.0 **** -0.24
30917 H 86.72974868835212 89.91625526885937 7.076896048502629 H 0.0 **** 0.06
30918 H 88.00172554980344 90.9334469368942 6.3603584054603814 H 0.0 **** 0.06
30919 H 87.36359746592089 89.5380503780548 5.457616253659836 H 0.0 **** 0.06
30920 H 88.38112389565111 89.27746975984701 6.894319076332572 H 0.0 **** 0.06
30921 C 74.39347190006299 118.90913892781005 85.35832747020714 C 0.0 **** -0.24
30922 H 74.66381182924715 119.00155020547433 84.30629152770939 H 0.0 **** 0.06
30923 H 73.64030966860798 119.65761617847713 85.60660885056706 H 0.0 **** 0.06
30924 H 75.27777079789996 119.06544845481687 85.97574944399435 H 0.0 **** 0.06
30925 H 73.99154661528911 117.91336427792676 85.54378098979333 H 0.0 **** 0.06
30926 C 122.3824962922447 94.1087458828581 104.22634777673389 C 0.0 **** -0.24
30927 H 122.30745049117692 95.1060619964228 103.79269372222149 H 0.0 **** 0.06
30928 H 123.3862735809279 93.71562894131102 104.06077775168865 H 0.0 **** 0.06
30929 H 121.6520951528089 93.45175357294818 103.75397248282411 H 0.0 **** 0.06
30930 H 122.18440932278226 94.16230468483025 105.29678326161468 H 0.0 **** 0.06
30931 C 109.6916310154738 67.31052280659006 37.23329052982086 C 0.0 **** -0.24
30932 H 110.2396054792917 67.98486265554229 37.89093165598757 H 0.0 **** 0.06
30933 H 109.06108935098251 67.89267434084977 36.560082524737936 H 0.0 **** 0.06
30934 H 109.0678205997273 66.64699857882661 37.832117122113914 H 0.0 **** 0.06
30935 H 110.39635719832006 66.71868390412769 36.65002490020936 H 0.0 **** 0.06
30936 C 41.64843528259827 62.07503934201537 52.942820749389256 C 0.0 **** -0.24
30937 H 42.20870102449138 61.99538362164634 53.874178559111556 H 0.0 **** 0.06
30938 H 41.336137128867776 63.109109097020564 52.794086821260095 H 0.0 **** 0.06
30939 H 40.768129759017654 61.43342839695333 52.99310759369766 H 0.0 **** 0.06
30940 H 42.2795519733822 61.76194757419276 52.112013725079436 H 0.0 **** 0.06
30941 C 60.67134724303492 70.46793207583426 53.73966137269678 C 0.0 **** -0.24
30942 H 59.76235939291056 69.99994938243287 54.11680508909709 H 0.0 **** 0.06
30943 H 60.408311306978895 71.30811358802595 53.09650564688702 H 0.0 **** 0.06
30944 H 61.24511682902884 69.73789979956916 53.16770723727151 H 0.0 **** 0.06
30945 H 61.27077959246596 70.82498731904778 54.57754715431923 H 0.0 **** 0.06
30946 C 99.26656213184219 1.0341853615508398 70.87612652765233 C 0.0 **** -0.24
30947 H 100.14944027722967 0.7320104172530364 71.44065614518809 H 0.0 **** 0.06
30948 H 98.43739620641622 1.2056718993806612 71.56303001518529 H 0.0 **** 0.06
30949 H 98.9986096793896 0.24703985430573994 70.17149147892292 H 0.0 **** 0.06
30950 H 99.48208900025486 1.9533466741022778 70.33058658841458 H 0.0 **** 0.06
30951 C 56.58304195463597 63.20893941728812 121.88850665866485 C 0.0 **** -0.24
30952 H 57.23997454011362 64.07784091134556 121.88428581991835 H 0.0 **** 0.06
30953 H 56.52475223806729 62.80179053468771 122.89763608172763 H 0.0 **** 0.06
30954 H 56.97964652769846 62.45028194547535 121.21325868796423 H 0.0 **** 0.06
30955 H 55.58788311546971 63.50538638906292 121.55751090501343 H 0.0 **** 0.06
30956 C 4.645376131224793 116.60826777009984 62.25015698140538 C 0.0 **** -0.24
30957 H 5.392046752633888 115.95735658577318 61.79508363233475 H 0.0 **** 0.06
30958 H 3.665432110022522 116.38861688709731 61.82511298947992 H 0.0 **** 0.06
30959 H 4.90330075330192 117.64871460437337 62.05247945335765 H 0.0 **** 0.06
30960 H 4.6224348274107 116.43724014864073 63.32662128802667 H 0.0 **** 0.06
30961 C 11.271270279152155 120.35938429727052 22.708802543872366 C 0.0 **** -0.24
30962 H 10.961204651283179 119.81357834441282 23.599705051367636 H 0.0 **** 0.06
30963 H 10.625627942651317 120.08912242252538 21.873331652322804 H 0.0 **** 0.06
30964 H 12.303829756956812 120.10372654374287 22.46775223201152 H 0.0 **** 0.06
30965 H 11.196521155000635 121.43074455869579 22.895089655173336 H 0.0 **** 0.06
30966 C 97.9521873634786 82.3862749924599 95.34086737937855 C 0.0 **** -0.24
30967 H 97.89044697156575 82.33523026266477 96.42849358264249 H 0.0 **** 0.06
30968 H 98.20648984752754 81.40275757908395 94.94534760673434 H 0.0 **** 0.06
30969 H 98.72155376364688 83.10298350653508 95.05458719034363 H 0.0 **** 0.06
30970 H 96.99071955050161 82.70386283436929 94.93696918197867 H 0.0 **** 0.06
30971 C 55.08530370346267 111.15461169361453 109.32173149660056 C 0.0 **** -0.24
30972 H 54.650450038893894 111.51216943670448 108.38753988534674 H 0.0 **** 0.06
30973 H 55.78947740828892 111.89474905888375 109.70138421456375 H 0.0 **** 0.06
30974 H 55.607005268660856 110.21389650876125 109.141205497648 H 0.0 **** 0.06
30975 H 54.29367920650131 110.99635660139188 110.05347807749794 H 0.0 **** 0.06
30976 C 21.28827159360287 20.507004967476178 55.06675454477363 C 0.0 **** -0.24
30977 H 22.10086886919403 20.998593834909087 54.5324239843838 H 0.0 **** 0.06
30978 H 21.69026325970904 19.968102592913837 55.92452318622256 H 0.0 **** 0.06
30979 H 20.78734741467956 19.806284171299467 54.39883803890032 H 0.0 **** 0.06
30980 H 20.574091777619074 21.256594913926975 55.40941224759595 H 0.0 **** 0.06
30981 C 16.86250427609779 103.47568444771014 17.24113536275721 C 0.0 **** -0.24
30982 H 17.771412824583972 103.71822215879581 17.791235178710835 H 0.0 **** 0.06
30983 H 16.172129536270603 102.94548935529394 17.897085060278716 H 0.0 **** 0.06
30984 H 17.110648409842597 102.84472280912883 16.388078512821902 H 0.0 **** 0.06
30985 H 16.395701687826378 104.3962872408045 16.888364802840012 H 0.0 **** 0.06
30986 C 35.85645576465765 85.54167428812048 71.72876456816903 C 0.0 **** -0.24
30987 H 35.76178558192086 85.26582467089034 72.7790696093407 H 0.0 **** 0.06
30988 H 36.75200302335119 85.0796707001492 71.3122180891568 H 0.0 **** 0.06
30989 H 35.93200908540288 86.62523291527393 71.64397385616431 H 0.0 **** 0.06
30990 H 34.979526662449175 85.19438745621022 71.18159970701498 H 0.0 **** 0.06
30991 C 14.470459328755965 45.392197940174725 116.48282638312423 C 0.0 **** -0.24
30992 H 13.62134263299555 44.79249153783431 116.81120606903266 H 0.0 **** 0.06
30993 H 15.396973981545614 44.92273730554834 116.81433426267728 H 0.0 **** 0.06
30994 H 14.395553718121107 46.392180891292355 116.91026922866547 H 0.0 **** 0.06
30995 H 14.466897554453851 45.460806708136374 115.39477109654354 H 0.0 **** 0.06
30996 C 22.251829171849124 52.874514749945185 119.94842900099229 C 0.0 **** -0.24
30997 H 22.05492065920879 51.932703929381994 119.43736004074859 H 0.0 **** 0.06
30998 H 22.206677734635832 52.7196545028061 121.02625772590588 H 0.0 **** 0.06
30999 H 21.503227455789443 53.61035996610989 119.65494235329686 H 0.0 **** 0.06
31000 H 23.242942296822463 53.235904844530246 119.6739401842911 H 0.0 **** 0.06
31001 C 93.99508936761896 27.162193888524257 76.62119206696224 C 0.0 **** -0.24
31002 H 94.56887714665172 28.052305894973472 76.36425569570642 H 0.0 **** 0.06
31003 H 93.1287426998592 27.085278509616728 75.96206631139358 H 0.0 **** 0.06
31004 H 93.65909648803131 27.232887124486126 77.65576849617062 H 0.0 **** 0.06
31005 H 94.62152756572135 26.278163147293412 76.50196134798438 H 0.0 **** 0.06
31006 C 38.451060158142866 26.90942886658712 10.842365455858356 C 0.0 **** -0.24
31007 H 37.564743005733845 26.360302558650574 10.525387060795268 H 0.0 **** 0.06
31008 H 38.83472327573057 26.477409381195685 11.767318414912964 H 0.0 **** 0.06
31009 H 38.19057493535266 27.95410462944585 11.009981336336608 H 0.0 **** 0.06
31010 H 39.21426720462492 26.844902435528923 10.066724764439797 H 0.0 **** 0.06
31011 C 86.27570063325047 120.82892339400773 82.36767578179504 C 0.0 **** -0.24
31012 H 86.53275516328611 120.61156856734998 81.33156145050816 H 0.0 **** 0.06
31013 H 86.97530811211416 120.31677850235462 83.03000367918199 H 0.0 **** 0.06
31014 H 85.26282478371783 120.4830734543223 82.57167923421468 H 0.0 **** 0.06
31015 H 86.33473128017934 121.90402610256079 82.538461319623 H 0.0 **** 0.06
31016 C 12.136103105825846 89.19541082865405 30.25639958593004 C 0.0 **** -0.24
31017 H 11.157544640977093 89.45030247052762 29.849600241063797 H 0.0 **** 0.06
31018 H 12.309566590355075 88.12422909012025 30.141833564699198 H 0.0 **** 0.06
31019 H 12.169932379304544 89.45818911633734 31.313911432007615 H 0.0 **** 0.06
31020 H 12.907133506813999 89.74760072422328 29.719808935460264 H 0.0 **** 0.06
31021 C 21.935975574798448 99.6237040995635 7.129313050979675 C 0.0 **** -0.24
31022 H 22.179805680477273 100.00742148885627 8.12039731604898 H 0.0 **** 0.06
31023 H 22.05235716268706 100.4196746636448 6.392907327984574 H 0.0 **** 0.06
31024 H 20.90485892790349 99.26923613570202 7.121690911912708 H 0.0 **** 0.06
31025 H 22.60579847798806 98.8008111481127 6.883810534171573 H 0.0 **** 0.06
31026 C 15.388136911770225 57.822002911307436 18.801467157903943 C 0.0 **** -0.24
31027 H 15.071264084123772 57.22010406182349 17.94916933973485 H 0.0 **** 0.06
31028 H 14.794916989564122 58.735427166366954 18.840740128736712 H 0.0 **** 0.06
31029 H 16.442631537257377 58.076473900450196 18.69378827822169 H 0.0 **** 0.06
31030 H 15.243571325471489 57.25338152995923 19.71950941478616 H 0.0 **** 0.06
31031 C 98.5559445562302 80.07203152286775 78.00426194084014 C 0.0 **** -0.24
31032 H 99.15983869888876 79.19600836077308 77.76717667170561 H 0.0 **** 0.06
31033 H 98.03915412466762 80.4100264278288 77.10536133910409 H 0.0 **** 0.06
31034 H 99.20155074368591 80.86866629190496 78.37417657151957 H 0.0 **** 0.06
31035 H 97.82334444832645 79.81273819829093 78.76874686411702 H 0.0 **** 0.06
31036 C 74.02825539084691 7.488233382841116 65.46372293080012 C 0.0 **** -0.24
31037 H 74.28714326378676 8.5015825370334 65.15713415315179 H 0.0 **** 0.06
31038 H 73.49122904999805 7.521500628399906 66.41251754424138 H 0.0 **** 0.06
31039 H 74.93868778178125 6.900996800756246 65.58230273605577 H 0.0 **** 0.06
31040 H 73.39547313240769 7.029483699068322 64.70354104091095 H 0.0 **** 0.06
31041 C 8.476426572492262 24.52474982785923 5.918144430997536 C 0.0 **** -0.24
31042 H 8.25504488598543 24.9957161275306 4.959572519069802 H 0.0 **** 0.06
31043 H 7.543924763983448 24.27225363749192 6.421751534867056 H 0.0 **** 0.06
31044 H 9.0497821170751 25.213750742368944 6.536934533892417 H 0.0 **** 0.06
31045 H 9.057128376467421 23.616700363197026 5.75000216514891 H 0.0 **** 0.06
31046 C 29.250471600098905 85.14909442721151 75.89209470041104 C 0.0 **** -0.24
31047 H 30.088711890848373 84.95821018623585 75.22172049749642 H 0.0 **** 0.06
31048 H 29.162545659591586 84.32936007551697 76.60522074722564 H 0.0 **** 0.06
31049 H 28.33125439437103 85.22706217329807 75.31154333568361 H 0.0 **** 0.06
31050 H 29.421814666323343 86.08167227792526 76.42969328062543 H 0.0 **** 0.06
31051 C 33.65030961545294 52.03226037897136 118.67592885343655 C 0.0 **** -0.24
31052 H 34.67808924934286 51.78590849446692 118.41177202551438 H 0.0 **** 0.06
31053 H 33.38377304006621 51.529223520849115 119.60598710848518 H 0.0 **** 0.06
31054 H 32.981458363040545 51.70319929274223 117.88022038210164 H 0.0 **** 0.06
31055 H 33.557071315634495 53.11123635855844 118.80565423100813 H 0.0 **** 0.06
31056 C 45.97811594244203 62.7959550188217 75.74355470344159 C 0.0 **** -0.24
31057 H 46.51728104831696 63.69349073851262 75.44202576823062 H 0.0 **** 0.06
31058 H 45.19259485341627 62.583267978771914 75.01819893659689 H 0.0 **** 0.06
31059 H 45.5342416340614 62.95150990355799 76.72667951039068 H 0.0 **** 0.06
31060 H 46.670341478685145 61.954155099706014 75.78705092078943 H 0.0 **** 0.06
31061 C 114.84058531270007 50.962603503302944 34.55859813875651 C 0.0 **** -0.24
31062 H 115.21735679247577 51.86856033789371 35.035462592226395 H 0.0 **** 0.06
31063 H 113.76826068260141 50.87950411641924 34.73371659154468 H 0.0 **** 0.06
31064 H 115.34643999894635 50.093574926120596 34.9781233964338 H 0.0 **** 0.06
31065 H 115.03117757069431 51.01226917613002 33.486094947951926 H 0.0 **** 0.06
31066 C 17.84982110971154 113.72778971154231 5.487296211089387 C 0.0 **** -0.24
31067 H 17.827508182550048 114.77510605744202 5.786125015216783 H 0.0 **** 0.06
31068 H 16.925711585860057 113.47812818059256 4.964839608099126 H 0.0 **** 0.06
31069 H 17.948329913480535 113.09903552073452 6.372286222374157 H 0.0 **** 0.06
31070 H 18.69902490247702 113.55723499380258 4.824036646775355 H 0.0 **** 0.06
31071 C 22.447392489053996 42.40870077052526 3.863637833074506 C 0.0 **** -0.24
31072 H 22.630702444104458 42.4054831642153 4.9380680223093805 H 0.0 **** 0.06
31073 H 21.664987526272434 43.13196248747386 3.6311143706437576 H 0.0 **** 0.06
31074 H 22.13060003283399 41.415524192280486 3.5472632393997685 H 0.0 **** 0.06
31075 H 23.362957207056965 42.68251860794123 3.3402095967080356 H 0.0 **** 0.06
31076 C 109.01039452859163 38.380125892170724 26.222531730203485 C 0.0 **** -0.24
31077 H 108.42166500036683 37.73800066305799 25.568996155932012 H 0.0 **** 0.06
31078 H 109.1359618179338 39.35750755045815 25.75569329148388 H 0.0 **** 0.06
31079 H 109.98882533101369 37.92853617076325 26.389896847728238 H 0.0 **** 0.06
31080 H 108.49614140928148 38.496939978063835 27.17685891147346 H 0.0 **** 0.06
31081 C 117.51639117840031 10.34028315223523 5.333148365621497 C 0.0 **** -0.24
31082 H 116.4410385086477 10.504669662889796 5.269738569036491 H 0.0 **** 0.06
31083 H 117.80645218004923 10.232200743670916 6.3782057466265485 H 0.0 **** 0.06
31084 H 118.04059215746562 11.190603030151124 4.895790818422796 H 0.0 **** 0.06
31085 H 117.77769509990745 9.433841126362552 4.787149062009249 H 0.0 **** 0.06
31086 C 109.5340472670839 24.12367888945633 82.6616140253569 C 0.0 **** -0.24
31087 H 109.62916758276364 24.614744734153476 81.69218187403195 H 0.0 **** 0.06
31088 H 108.73679042693772 23.38064289264652 82.61552428237616 H 0.0 **** 0.06
31089 H 109.29514479426237 24.865928265573075 83.42264395225746 H 0.0 **** 0.06
31090 H 110.47404524466256 23.633766687418998 82.91391923561594 H 0.0 **** 0.06
31091 C 48.10089024738073 103.63107278479379 59.15454133829369 C 0.0 **** -0.24
31092 H 48.68460751362565 103.06498883544651 58.427751604785584 H 0.0 **** 0.06
31093 H 48.106314571717405 104.68656206294884 58.882309645067316 H 0.0 **** 0.06
31094 H 48.53770465683584 103.50826804380594 60.145665600269375 H 0.0 **** 0.06
31095 H 47.075444532870534 103.26209171260842 59.16216787998486 H 0.0 **** 0.06
31096 C 82.94154186226078 72.71992851896798 40.701746533660554 C 0.0 **** -0.24
31097 H 82.67907125526443 73.62362768661649 41.25153568312966 H 0.0 **** 0.06
31098 H 82.62340889507021 72.82082690885792 39.66368241844373 H 0.0 **** 0.06
31099 H 82.44213965775066 71.86215296608589 41.15395196866484 H 0.0 **** 0.06
31100 H 84.02057706999338 72.57190962624978 40.739436474624966 H 0.0 **** 0.06
31101 C 54.768753531250546 75.7016054994863 84.3981447040675 C 0.0 **** -0.24
31102 H 54.3335924726613 76.58389792798278 84.86636686664406 H 0.0 **** 0.06
31103 H 55.26809899496153 75.990412008589 83.47281660737104 H 0.0 **** 0.06
31104 H 53.98142056004027 74.98161706999457 84.17583060066858 H 0.0 **** 0.06
31105 H 55.493180652152496 75.25036683240637 85.07697399274599 H 0.0 **** 0.06
31106 C 18.4067159637018 72.6464082806113 57.70688291217215 C 0.0 **** -0.24
31107 H 17.880368309499943 71.83101287779368 57.21011672400843 H 0.0 **** 0.06
31108 H 17.949344948329895 72.83394968569701 58.67817230566473 H 0.0 **** 0.06
31109 H 18.34106314169935 73.54635947067598 57.09487496362459 H 0.0 **** 0.06
31110 H 19.45283366804199 72.3735095094099 57.842702987491464 H 0.0 **** 0.06
31111 C 90.32973388883505 34.37132769534003 73.72493165189937 C 0.0 **** -0.24
31112 H 90.92960773606003 33.621250490080456 73.20951562230772 H 0.0 **** 0.06
31113 H 90.95954740348279 34.92046775454793 74.4255059253102 H 0.0 **** 0.06
31114 H 89.52381481607208 33.878996748483246 74.26923838484927 H 0.0 **** 0.06
31115 H 89.90720334514452 35.061968234040194 72.99621797142416 H 0.0 **** 0.06
31116 C 7.581921091367462 100.45825139456457 62.01317198127466 C 0.0 **** -0.24
31117 H 6.591902210134265 100.4604871963594 62.470190356754564 H 0.0 **** 0.06
31118 H 7.496113358025184 100.1756875666886 60.9634187218977 H 0.0 **** 0.06
31119 H 8.218702728169234 99.7416805551409 62.53199132384716 H 0.0 **** 0.06
31120 H 8.018702670337234 101.45349673680704 62.087466114696774 H 0.0 **** 0.06
31121 C 27.91234221683694 79.12100514692372 93.35994102472026 C 0.0 **** -0.24
31122 H 27.626412492372154 80.17263896104294 93.33792633008571 H 0.0 **** 0.06
31123 H 28.96266261371933 79.02458734266781 93.08294308073931 H 0.0 **** 0.06
31124 H 27.29673030895715 78.5623784235695 92.65391385056776 H 0.0 **** 0.06
31125 H 27.762740705706165 78.72538893496665 94.36436738391728 H 0.0 **** 0.06
31126 C 116.74261042624263 63.58645748620328 101.02915502395999 C 0.0 **** -0.24
31127 H 117.1644434327304 62.582917499840384 101.08026778402512 H 0.0 **** 0.06
31128 H 117.0409223844922 64.15122509271714 101.91316165779551 H 0.0 **** 0.06
31129 H 115.65509660756142 63.52201088174376 100.98934954219652 H 0.0 **** 0.06
31130 H 117.11013303808855 64.09000869714566 100.13553408286779 H 0.0 **** 0.06
31131 C 10.79234228882331 17.437377628306223 10.724856670087405 C 0.0 **** -0.24
31132 H 11.127470430419105 18.0819120829958 11.538020640577571 H 0.0 **** 0.06
31133 H 9.710378788266592 17.518869327011544 10.619593997196063 H 0.0 **** 0.06
31134 H 11.059923159813767 16.404163234607438 10.946900903908528 H 0.0 **** 0.06
31135 H 11.273210503337808 17.746255568990776 9.79650526681938 H 0.0 **** 0.06
31136 C 33.67256913089377 69.95468428567904 63.400540658284804 C 0.0 **** -0.24
31137 H 34.665009761273026 70.18909009455791 63.78596465809722 H 0.0 **** 0.06
31138 H 33.76738889227616 69.44160089334645 62.44258717524824 H 0.0 **** 0.06
31139 H 33.10876402263602 70.87798316842904 63.263868956358984 H 0.0 **** 0.06
31140 H 33.14967738941551 69.31110460168611 64.10759759719909 H 0.0 **** 0.06
31141 C 19.541748997834716 95.48050141905333 100.07035560377639 C 0.0 **** -0.24
31142 H 20.139967336279643 94.70543011202255 99.58993236296757 H 0.0 **** 0.06
31143 H 18.55443359518619 95.51462036760665 99.60953532017311 H 0.0 **** 0.06
31144 H 20.03338995702751 96.44614295315967 99.94693438762414 H 0.0 **** 0.06
31145 H 19.44044446728996 95.25676949770775 101.13162204781364 H 0.0 **** 0.06
31146 C 51.27265955086486 26.111872584812545 80.45658788124857 C 0.0 **** -0.24
31147 H 51.01348371315888 25.795666094465957 79.4457280890525 H 0.0 **** 0.06
31148 H 50.49858712871281 25.781965632654817 81.14958963238783 H 0.0 **** 0.06
31149 H 51.35044263916933 27.198416999738754 80.4880859430414 H 0.0 **** 0.06
31150 H 52.227947680805926 25.670707223481543 80.7410959555881 H 0.0 **** 0.06
31151 C 82.76228874737077 14.136225387993548 116.91393022864148 C 0.0 **** -0.24
31152 H 82.62255979374689 15.047331388543245 117.49582954325257 H 0.0 **** 0.06
31153 H 82.51875714482367 14.332288285166179 115.8692623951178 H 0.0 **** 0.06
31154 H 82.10647456818842 13.355542597279563 117.2998295582444 H 0.0 **** 0.06
31155 H 83.79923110478055 13.811921337488826 116.99163137368694 H 0.0 **** 0.06
31156 C 27.229058151034167 109.48064377285098 95.56076465419656 C 0.0 **** -0.24
31157 H 28.08378319885864 109.41602672927672 94.88807913242476 H 0.0 **** 0.06
31158 H 27.580338244913037 109.657868853584 96.57812437009136 H 0.0 **** 0.06
31159 H 26.66772817369079 108.54667937191306 95.5270851885137 H 0.0 **** 0.06
31160 H 26.58490319406883 110.30332874809753 95.25117149576425 H 0.0 **** 0.06
31161 C 96.92568479137506 72.37879771652294 93.43473948417804 C 0.0 **** -0.24
31162 H 96.11291335224746 72.1050892413555 92.7627288203067 H 0.0 **** 0.06
31163 H 97.08101940962678 71.58068417688347 94.16105077651602 H 0.0 **** 0.06
31164 H 96.670937470447 73.3013561227076 93.95609627489904 H 0.0 **** 0.06
31165 H 97.83880026265723 72.52763199970741 92.85810819826582 H 0.0 **** 0.06
31166 C 45.03864264378882 82.43657278391353 92.04178303648746 C 0.0 **** -0.24
31167 H 44.146546015088006 81.8360419677594 91.86614013253711 H 0.0 **** 0.06
31168 H 44.90670426169213 83.4218117893835 91.59325593574044 H 0.0 **** 0.06
31169 H 45.90130105936473 81.9440886031332 91.59184306488464 H 0.0 **** 0.06
31170 H 45.19956202038394 82.54368211585233 93.11473256997147 H 0.0 **** 0.06
31171 C 24.629814964106487 74.73940822023854 48.95585218835478 C 0.0 **** -0.24
31172 H 23.709989388221487 75.21864741879628 49.29076384716511 H 0.0 **** 0.06
31173 H 24.389354316429262 73.79935149356723 48.459291863167806 H 0.0 **** 0.06
31174 H 25.270577641251464 74.5436307161969 49.81520162239957 H 0.0 **** 0.06
31175 H 25.148356313524886 75.39817781897219 48.25870539110687 H 0.0 **** 0.06
31176 C 112.31259528402921 50.99524551505288 119.48421381684307 C 0.0 **** -0.24
31177 H 112.73047045718418 51.680858030980694 120.2215922569722 H 0.0 **** 0.06
31178 H 112.58167519741923 51.33133940273599 118.48293013151047 H 0.0 **** 0.06
31179 H 111.22771888290094 50.97206467662759 119.58248344171818 H 0.0 **** 0.06
31180 H 112.71395610939939 49.994823410118585 119.65110396847652 H 0.0 **** 0.06
31181 C 1.8998275355942411 64.25404907714434 78.14470817171426 C 0.0 **** -0.24
31182 H 2.9106150119792744 64.02304251003687 77.80886928441262 H 0.0 **** 0.06
31183 H 1.6965267347397486 65.31254044855126 77.98212916399373 H 0.0 **** 0.06
31184 H 1.8081459753039297 64.02444495261327 79.20618005186742 H 0.0 **** 0.06
31185 H 1.1847445298294161 63.65491263476172 77.57995069121367 H 0.0 **** 0.06
31186 C 6.0379781526168586 76.22590677269764 69.37108521609525 C 0.0 **** -0.24
31187 H 6.420521609540259 77.01556567371182 70.01894904257301 H 0.0 **** 0.06
31188 H 5.594232999876141 75.43888844903742 69.98125941710566 H 0.0 **** 0.06
31189 H 6.855209861669209 75.8126638462821 68.78077793101738 H 0.0 **** 0.06
31190 H 5.280489888529985 76.63974448233532 68.70399218052228 H 0.0 **** 0.06
31191 C 10.121316030662172 57.81946840717623 96.46279087984811 C 0.0 **** -0.24
31192 H 9.170850645101115 58.06410783864581 96.93792694224067 H 0.0 **** 0.06
31193 H 10.586901900608542 56.986751533371205 96.98969174220105 H 0.0 **** 0.06
31194 H 10.77921192132607 58.688070168410455 96.50079274881307 H 0.0 **** 0.06
31195 H 9.94584853658834 57.54094854008309 95.42373940613408 H 0.0 **** 0.06
31196 C 33.83817079444478 108.74325451428314 0.1515797231646765 C 0.0 **** -0.24
31197 H 34.338364545240864 107.86280569370803 0.5544049831325832 H 0.0 **** 0.06
31198 H 33.88873554700601 109.55456068350858 0.8787693249140656 H 0.0 **** 0.06
31199 H 32.79548859338371 108.50492105600551 -0.05667511592138297 H 0.0 **** 0.06
31200 H 34.331310703469285 109.05128571042371 -0.771281605951291 H 0.0 **** 0.06
31201 C 79.77803559535599 55.236167372170456 61.78117854298847 C 0.0 **** -0.24
31202 H 79.87322665030001 55.487315510954744 62.83792375637586 H 0.0 **** 0.06
31203 H 80.10752300006985 54.20917822959055 61.6212706905049 H 0.0 **** 0.06
31204 H 80.39469057360375 55.913441696689915 61.19048721590076 H 0.0 **** 0.06
31205 H 78.73582068249695 55.335077876767286 61.47805001520925 H 0.0 **** 0.06
31206 C 81.39286533473856 42.67159918447885 112.49242634972703 C 0.0 **** -0.24
31207 H 82.0689212400232 41.946415259194055 112.94568547253212 H 0.0 **** 0.06
31208 H 80.9356470229801 42.236194917425934 111.6037314158273 H 0.0 **** 0.06
31209 H 81.95079163377122 43.56531789669418 112.21351736662308 H 0.0 **** 0.06
31210 H 80.6142221120241 42.938566900219115 113.20833920065456 H 0.0 **** 0.06
31211 C 32.79341713434319 113.02386491883492 110.1329633355536 C 0.0 **** -0.24
31212 H 33.3321799510199 113.87217167743647 109.7093473907504 H 0.0 **** 0.06
31213 H 31.74437478901521 113.28962430634296 110.26607334877639 H 0.0 **** 0.06
31214 H 33.227574270850624 112.76270835016993 111.09747351892906 H 0.0 **** 0.06
31215 H 32.86946836848818 112.1718227914038 109.4568992912142 H 0.0 **** 0.06
31216 C 116.93709226814516 15.180625285963913 13.665570370114068 C 0.0 **** -0.24
31217 H 117.14452876482571 16.232225809579774 13.467917746112107 H 0.0 **** 0.06
31218 H 116.64111069023778 15.058552244986927 14.708564776669022 H 0.0 **** 0.06
31219 H 117.83269224305643 14.590561897178205 13.470365281360074 H 0.0 **** 0.06
31220 H 116.12977154547303 14.841309524353136 13.017648989116708 H 0.0 **** 0.06
31221 C 35.82736735061604 99.6248459433042 45.766895379483216 C 0.0 **** -0.24
31222 H 36.102726579924195 100.30249172166992 44.95910234125513 H 0.0 **** 0.06
31223 H 36.44207569218156 98.72670256219092 45.71319051500412 H 0.0 **** 0.06
31224 H 34.776163093979164 99.3519361580752 45.67059362965351 H 0.0 **** 0.06
31225 H 35.988110996142325 100.11953386997916 46.72514874044987 H 0.0 **** 0.06
31226 C 101.57586403817703 18.018369270996043 102.9075748578347 C 0.0 **** -0.24
31227 H 101.41636357597531 18.629463072991616 102.01932484597052 H 0.0 **** 0.06
31228 H 100.79627189013837 18.22948229103113 103.63909551275759 H 0.0 **** 0.06
31229 H 102.55084529003898 18.250618536228554 103.33749000779576 H 0.0 **** 0.06
31230 H 101.54192260444415 16.964366286221615 102.63338738727936 H 0.0 **** 0.06
31231 C 28.59855411398903 51.477634362269626 58.342033458254434 C 0.0 **** -0.24
31232 H 27.601878043040394 51.89946067692055 58.21364934236044 H 0.0 **** 0.06
31233 H 28.670446918241275 50.541493092671104 57.788547176062224 H 0.0 **** 0.06
31234 H 28.77980837360711 51.289645357421655 59.40081351950075 H 0.0 **** 0.06
31235 H 29.341730145147416 52.18154141988884 57.9656766534458 H 0.0 **** 0.06
31236 C 116.69354524452356 30.768862652347536 41.15854558250706 C 0.0 **** -0.24
31237 H 115.81855643771473 31.400983265863573 41.31026325611856 H 0.0 **** 0.06
31238 H 116.80345303762905 30.09017694625112 42.005066807697204 H 0.0 **** 0.06
31239 H 117.5827198561354 31.394344079307018 41.0759522663698 H 0.0 **** 0.06
31240 H 116.56945697374775 30.191221937180075 40.24228936200146 H 0.0 **** 0.06
31241 C 32.13212703638072 4.359831243435451 82.71664407094241 C 0.0 **** -0.24
31242 H 32.13569952291391 5.361657300028867 82.28677904764342 H 0.0 **** 0.06
31243 H 31.174152962343555 4.178337947812565 83.20469942432652 H 0.0 **** 0.06
31244 H 32.93537519160981 4.276104560294442 83.44875770874398 H 0.0 **** 0.06
31245 H 32.28159429459146 3.624576287091628 81.92576428531669 H 0.0 **** 0.06
31246 C 8.852393448193126 56.43240402524842 44.50069065982453 C 0.0 **** -0.24
31247 H 9.615527126032053 56.512211784584565 45.27402226207414 H 0.0 **** 0.06
31248 H 9.291198720147207 56.66841414953265 43.531354149423606 H 0.0 **** 0.06
31249 H 8.043910240604948 57.13307137290974 44.71454206404405 H 0.0 **** 0.06
31250 H 8.45666732513832 55.41650176891744 44.4835553915525 H 0.0 **** 0.06
31251 C 102.84891664122117 96.08062200398146 47.02054099821286 C 0.0 **** -0.24
31252 H 103.58319140632045 96.29446014859784 46.24424149779908 H 0.0 **** 0.06
31253 H 102.9379015074741 95.03795635483175 47.32795805817425 H 0.0 **** 0.06
31254 H 101.84691154826089 96.26015386568412 46.63092679127728 H 0.0 **** 0.06
31255 H 103.02662660322443 96.72956670844792 47.8781405981337 H 0.0 **** 0.06
31256 C 107.88356879235519 116.98853727592278 20.982091252514522 C 0.0 **** -0.24
31257 H 108.82741985304841 116.7515000886549 20.489922845102853 H 0.0 **** 0.06
31258 H 107.95378596141472 117.97218261067961 21.445989421029537 H 0.0 **** 0.06
31259 H 107.67456368604022 116.23929120186129 21.744853499845476 H 0.0 **** 0.06
31260 H 107.08100616634565 116.99025169565968 20.244453517773223 H 0.0 **** 0.06
31261 C 40.868121641569815 95.81212322856044 55.590431209900885 C 0.0 **** -0.24
31262 H 40.11031423811022 96.04559349299947 56.33853730061929 H 0.0 **** 0.06
31263 H 41.82808919665055 95.65609389625669 56.082586947087805 H 0.0 **** 0.06
31264 H 40.950114792634054 96.63965447447532 54.88545368344552 H 0.0 **** 0.06
31265 H 40.58297889123806 94.90578555609437 55.05554261710944 H 0.0 **** 0.06
31266 C 34.31058508269825 101.28841788789421 21.834345100969642 C 0.0 **** -0.24
31267 H 34.807791510647235 101.75204236083965 22.686440314082006 H 0.0 **** 0.06
31268 H 33.96732255775413 102.06248070420062 21.148822920459764 H 0.0 **** 0.06
31269 H 33.45733865779215 100.70697450332568 22.183627591428433 H 0.0 **** 0.06
31270 H 35.011186062561194 100.63075917204307 21.31904862972354 H 0.0 **** 0.06
31271 C 72.7267960949523 1.8405640858861716 122.10824741213571 C 0.0 **** -0.24
31272 H 72.37281767408948 1.0382716646711856 121.46096596724385 H 0.0 **** 0.06
31273 H 72.16435684661354 1.8298555126766587 123.04226592840749 H 0.0 **** 0.06
31274 H 72.58418208410811 2.7995460180676446 121.60942172486065 H 0.0 **** 0.06
31275 H 73.78626894626208 1.6953376926726378 122.31985014109947 H 0.0 **** 0.06
31276 C 91.35615801789373 89.13062637073972 63.7608596006253 C 0.0 **** -0.24
31277 H 91.330269212292 88.19376424509034 64.31748807880189 H 0.0 **** 0.06
31278 H 90.88807573672153 89.91681168214106 64.35392520285379 H 0.0 **** 0.06
31279 H 90.81448125626517 89.010889594536 62.82280976378548 H 0.0 **** 0.06
31280 H 92.39170872542445 89.40116183245217 63.55165995212307 H 0.0 **** 0.06
31281 C 79.74990735212182 52.742078713257456 110.4186062433541 C 0.0 **** -0.24
31282 H 80.15697362373854 51.87594002591382 110.94104858013336 H 0.0 **** 0.06
31283 H 78.8717118097315 53.107029871772994 110.95135231582242 H 0.0 **** 0.06
31284 H 79.46796001816153 52.45511772905755 109.4049483658626 H 0.0 **** 0.06
31285 H 80.50336518625127 53.528031533958426 110.37725977046122 H 0.0 **** 0.06
31286 C 75.2056458170234 87.39226648675094 54.251816765263925 C 0.0 **** -0.24
31287 H 75.07845479919035 87.89408524491313 55.21177904960712 H 0.0 **** 0.06
31288 H 74.6705423603056 86.44224723653352 54.26457983155285 H 0.0 **** 0.06
31289 H 76.26610196269414 87.21043360911281 54.0748937791316 H 0.0 **** 0.06
31290 H 74.80721361004746 88.02287076026815 53.45762717668228 H 0.0 **** 0.06
31291 C 78.72133522886554 83.29272066643645 51.65678152238149 C 0.0 **** -0.24
31292 H 77.64764955099355 83.11629920220327 51.729119064325175 H 0.0 **** 0.06
31293 H 78.89914782751009 84.26495910558651 51.19672364617193 H 0.0 **** 0.06
31294 H 79.1768482173643 82.51249287646021 51.04745516475333 H 0.0 **** 0.06
31295 H 79.15998424448321 83.277115500735 52.655267743675296 H 0.0 **** 0.06
31296 C 96.24391233155217 93.31290199745521 10.373565319173053 C 0.0 **** -0.24
31297 H 96.20291951232886 92.53827785338092 9.607940644628854 H 0.0 **** 0.06
31298 H 96.36874803366169 94.28665584481567 9.899230354472536 H 0.0 **** 0.06
31299 H 97.08495312270881 93.12148164863251 11.038664311156936 H 0.0 **** 0.06
31300 H 95.31732814490343 93.30528312917167 10.948109365555752 H 0.0 **** 0.06
31301 C 6.081058432999605 22.025037794152865 0.3300092671581467 C 0.0 **** -0.24
31302 H 6.015367863778469 22.905242811980685 -0.31005873048209764 H 0.0 **** 0.06
31303 H 5.645191692367483 21.168706099738174 -0.1845549565475153 H 0.0 **** 0.06
31304 H 5.537480377083305 22.20906754000474 1.256018450945902 H 0.0 **** 0.06
31305 H 7.127301907441783 21.819862066950066 0.5574772042571681 H 0.0 **** 0.06
31306 C 15.269857934417633 106.18152062338132 103.30503251864297 C 0.0 **** -0.24
31307 H 14.63426457590905 105.79392820162306 104.10130152759129 H 0.0 **** 0.06
31308 H 16.14081337495358 106.67090570852864 103.74068602131464 H 0.0 **** 0.06
31309 H 14.708190090329083 106.90047090910795 102.70930455945359 H 0.0 **** 0.06
31310 H 15.59585748594042 105.35894841148911 102.66758884207403 H 0.0 **** 0.06
31311 C 16.439594094133724 55.00432582359713 99.40101043067386 C 0.0 **** -0.24
31312 H 16.34920611421836 55.80997306084083 100.12981608900873 H 0.0 **** 0.06
31313 H 15.689064711125383 55.13354797915025 98.6221013664217 H 0.0 **** 0.06
31314 H 16.287545182638013 54.04603250910435 99.89857372491781 H 0.0 **** 0.06
31315 H 17.434450235245862 55.028332495194945 98.95601820582988 H 0.0 **** 0.06
31316 C 12.222869859868808 117.78764417296942 0.5182410561298525 C 0.0 **** -0.24
31317 H 11.248178713625691 117.30792986574805 0.4223945610603437 H 0.0 **** 0.06
31318 H 12.099169850281498 118.77061041641893 0.9755275549060229 H 0.0 **** 0.06
31319 H 12.670567347412032 117.90033655635563 -0.4689927037303505 H 0.0 **** 0.06
31320 H 12.870431064548086 117.17472958771604 1.143937657596581 H 0.0 **** 0.06
31321 C 1.6927193241544263 121.76477096124744 72.40153004110832 C 0.0 **** -0.24
31322 H 0.6544243440730924 121.4851580131339 72.2259390238072 H 0.0 **** 0.06
31323 H 1.996724538310982 121.42759461912766 73.39282672258221 H 0.0 **** 0.06
31324 H 1.7931608460979636 122.84844090986459 72.33839455456925 H 0.0 **** 0.06
31325 H 2.3274730335072036 121.29686216636509 71.6486088946346 H 0.0 **** 0.06
31326 C 79.30071232772539 15.192842479434859 76.41079694200877 C 0.0 **** -0.24
31327 H 80.14281557498663 15.804055760014393 76.08796337641365 H 0.0 **** 0.06
31328 H 78.5185350667744 15.222164004720781 75.65156893633889 H 0.0 **** 0.06
31329 H 78.90959499608363 15.579994086528217 77.35115482128975 H 0.0 **** 0.06
31330 H 79.63255626471627 14.163290516392209 76.5514546295363 H 0.0 **** 0.06
31331 C 10.250791604727493 85.66192373929184 64.75019867840498 C 0.0 **** -0.24
31332 H 9.597311535128501 84.87212736006671 64.37858913605223 H 0.0 **** 0.06
31333 H 10.785070668373844 86.11383818681 63.91401963868901 H 0.0 **** 0.06
31334 H 10.967367960055572 85.23962398103782 65.45462494604266 H 0.0 **** 0.06
31335 H 9.651656605072514 86.42219925277507 65.25185947527353 H 0.0 **** 0.06
31336 C 15.132049643717465 83.11852526338447 15.4658943001284 C 0.0 **** -0.24
31337 H 16.077089929190265 82.60127034835497 15.29868972738321 H 0.0 **** 0.06
31338 H 15.037764311888196 83.36943190721308 16.522365906171057 H 0.0 **** 0.06
31339 H 14.306378825527247 82.46967630288455 15.171082594506174 H 0.0 **** 0.06
31340 H 15.107617724739754 84.03088527785314 14.870714187650766 H 0.0 **** 0.06
31341 C 63.361010025606454 86.55015166040562 70.83848277273907 C 0.0 **** -0.24
31342 H 64.00508983751843 87.19718601507029 70.24339635712724 H 0.0 **** 0.06
31343 H 62.468096540424476 86.299766205368 70.26504419634261 H 0.0 **** 0.06
31344 H 63.07278795785431 87.06732901145952 71.75417420998994 H 0.0 **** 0.06
31345 H 63.899297940465694 85.63604684649081 71.09195214310304 H 0.0 **** 0.06
31346 C 118.01250621944067 107.32076974417052 41.27925330284461 C 0.0 **** -0.24
31347 H 117.77575852669696 106.29809865194932 40.98345004263962 H 0.0 **** 0.06
31348 H 117.17045484175665 107.97100987179888 41.0438062002638 H 0.0 **** 0.06
31349 H 118.89578154078757 107.65906060933409 40.73846585038331 H 0.0 **** 0.06
31350 H 118.2083958628248 107.35212510982385 42.35095671645428 H 0.0 **** 0.06
31351 C 71.494909210321 5.5350198293513735 68.67853743848471 C 0.0 **** -0.24
31352 H 71.4911653924546 6.610762141959704 68.85445672197608 H 0.0 **** 0.06
31353 H 70.58646521642129 5.09652088067898 69.09427826944966 H 0.0 **** 0.06
31354 H 72.36624659569054 5.091066839892488 69.15992920288161 H 0.0 **** 0.06
31355 H 71.53425398144293 5.342968220992912 67.60696839295775 H 0.0 **** 0.06
31356 C 17.34754972603332 2.00792517996598 120.35174402632933 C 0.0 **** -0.24
31357 H 17.34790508431317 2.848494599675462 121.045302260667 H 0.0 **** 0.06
31358 H 18.336673080237745 1.549358566314396 120.33668337753181 H 0.0 **** 0.06
31359 H 17.096518165527073 2.363156560488221 119.352425790426 H 0.0 **** 0.06
31360 H 16.61034694199759 1.2726947657686338 120.6732255689966 H 0.0 **** 0.06
31361 C 102.05233083641409 62.7787606386571 56.325157471368534 C 0.0 **** -0.24
31362 H 101.12865071538556 62.213973891724244 56.197145288820785 H 0.0 **** 0.06
31363 H 101.8130199597324 63.82163082882335 56.537523435134595 H 0.0 **** 0.06
31364 H 102.64437819866475 62.71991256732198 55.41157497204674 H 0.0 **** 0.06
31365 H 102.62149086653798 62.360769793611716 57.154905981000034 H 0.0 **** 0.06
31366 C 75.36457461199043 3.2086988429040986 32.400770954921455 C 0.0 **** -0.24
31367 H 74.68681486347654 3.910632482291078 32.88743003790182 H 0.0 **** 0.06
31368 H 76.3532463478079 3.286321564299868 32.85400388221956 H 0.0 **** 0.06
31369 H 75.43160959200867 3.445766692046277 31.33870442798768 H 0.0 **** 0.06
31370 H 74.98649455907227 2.194135538809576 32.52380292926898 H 0.0 **** 0.06
31371 C 68.2737204312347 116.3457847133815 68.5913601323625 C 0.0 **** -0.24
31372 H 67.20722885890129 116.46964630834273 68.39869394766055 H 0.0 **** 0.06
31373 H 68.57112436723108 115.3261152424943 68.34469183444773 H 0.0 **** 0.06
31374 H 68.47699849254721 116.53856635717395 69.64528634441098 H 0.0 **** 0.06
31375 H 68.83640870112941 117.04846075041536 67.97783396849269 H 0.0 **** 0.06
31376 C 21.291606406387274 36.490544217067715 105.64374070131305 C 0.0 **** -0.24
31377 H 20.79524222914415 35.977616190271334 104.8197731119684 H 0.0 **** 0.06
31378 H 22.24255899782736 36.897403563298354 105.29866851197471 H 0.0 **** 0.06
31379 H 21.470582575371708 35.78511986352791 106.45476357594589 H 0.0 **** 0.06
31380 H 20.657509621831906 37.30179050112412 106.00094770921339 H 0.0 **** 0.06
31381 C 91.07813360475305 56.84915557222371 8.295022005308937 C 0.0 **** -0.24
31382 H 92.03432557044147 56.327979575822695 8.33395268665663 H 0.0 **** 0.06
31383 H 91.03829151020048 57.46982000493861 7.3999446949616186 H 0.0 **** 0.06
31384 H 90.97093557263216 57.478310440963696 9.17865080947115 H 0.0 **** 0.06
31385 H 90.26786419233719 56.12029565405152 8.268379008181967 H 0.0 **** 0.06
31386 C 85.22901315008374 114.51314751230586 92.5274945164357 C 0.0 **** -0.24
31387 H 85.20133616999408 115.49704358707834 92.05883936862205 H 0.0 **** 0.06
31388 H 86.22094422989625 114.33774148773534 92.94446647477656 H 0.0 **** 0.06
31389 H 85.00893507905565 113.7502099132746 91.7807402098453 H 0.0 **** 0.06
31390 H 84.48561291982796 114.46896319793598 93.32301191819158 H 0.0 **** 0.06
31391 C 81.16569654300261 71.79874272234179 14.248507263704596 C 0.0 **** -0.24
31392 H 81.72854243544066 72.39793020946024 13.532624593658227 H 0.0 **** 0.06
31393 H 80.69396856310524 72.45519651324923 14.980224630713508 H 0.0 **** 0.06
31394 H 81.84207202796279 71.11258028893417 14.758771390561265 H 0.0 **** 0.06
31395 H 80.3988469044049 71.22990480059013 13.7228265882041 H 0.0 **** 0.06
31396 C 92.40649644594623 41.46021374194089 101.07974310453702 C 0.0 **** -0.24
31397 H 91.74517413537575 41.2052254584373 101.90868036627899 H 0.0 **** 0.06
31398 H 93.04630353953553 40.60789084867193 100.85126183037968 H 0.0 **** 0.06
31399 H 93.02419415766875 42.314303708197286 101.35791034199835 H 0.0 **** 0.06
31400 H 91.81037191177629 41.71355621008405 100.2041169510822 H 0.0 **** 0.06
31401 C 53.20295426203401 112.71227838936386 76.25675738644077 C 0.0 **** -0.24
31402 H 53.6714264762567 112.70419064652657 77.24069868453003 H 0.0 **** 0.06
31403 H 53.950736216968096 112.94975482629422 75.50026666943876 H 0.0 **** 0.06
31404 H 52.41281989817554 113.46415152501996 76.23701629947507 H 0.0 **** 0.06
31405 H 52.77489854543305 111.73145124788326 76.05048442547653 H 0.0 **** 0.06
31406 C 106.3329465682117 36.52463004630317 10.547556880568468 C 0.0 **** -0.24
31407 H 106.27450638452598 37.60434961312927 10.408479362272256 H 0.0 **** 0.06
31408 H 106.12293119609222 36.28095644263746 11.589373030313034 H 0.0 **** 0.06
31409 H 107.33351797704583 36.178946983739195 10.287598784636831 H 0.0 **** 0.06
31410 H 105.60167262492422 36.035246485227276 9.905352707278091 H 0.0 **** 0.06
31411 C 20.135254415053993 49.320961334381934 82.36896341699025 C 0.0 **** -0.24
31412 H 20.858229017743668 49.079400396723116 81.58884531611773 H 0.0 **** 0.06
31413 H 19.900876577741258 48.42038479223564 82.93735157855406 H 0.0 **** 0.06
31414 H 19.225818798275384 49.71096291118367 81.91301199362906 H 0.0 **** 0.06
31415 H 20.558995407062383 50.071563833906964 83.03616847517864 H 0.0 **** 0.06
31416 C 27.962547705663575 29.47598987247818 102.5747411650637 C 0.0 **** -0.24
31417 H 27.684663357305986 28.423910381887538 102.51193065761032 H 0.0 **** 0.06
31418 H 28.627629874236803 29.625082648523673 103.42532518779197 H 0.0 **** 0.06
31419 H 27.065213911617732 30.08129880573972 102.7047500460512 H 0.0 **** 0.06
31420 H 28.472146360764206 29.77246310453947 101.65808149616859 H 0.0 **** 0.06
31421 C 55.48029396911295 81.68255756767451 64.54879671595296 C 0.0 **** -0.24
31422 H 56.403229560225554 81.3488829726746 65.02418849809175 H 0.0 **** 0.06
31423 H 54.72384179744495 80.90253216966008 64.63491069874618 H 0.0 **** 0.06
31424 H 55.67008432314395 81.89120215420905 63.49544053528575 H 0.0 **** 0.06
31425 H 55.12608431417891 82.58847196365346 65.04060435319477 H 0.0 **** 0.06
31426 C 121.56007596411376 89.33938768071067 34.8669517269378 C 0.0 **** -0.24
31427 H 120.97865669829656 90.18778861515449 34.504502168924915 H 0.0 **** 0.06
31428 H 122.23665677081485 89.00149843941495 34.08113019724149 H 0.0 **** 0.06
31429 H 120.88608383376489 88.52801186214043 35.140628515473665 H 0.0 **** 0.06
31430 H 122.13864409743218 89.64219174645098 35.74007358517554 H 0.0 **** 0.06
31431 C 86.21647826210068 110.03831173849554 107.76051510783427 C 0.0 **** -0.24
31432 H 85.92220109123664 109.11457282529966 107.26228373843719 H 0.0 **** 0.06
31433 H 86.97406887253834 109.81938973825885 108.51284863846612 H 0.0 **** 0.06
31434 H 85.34461124151366 110.48465492860905 108.24112712386497 H 0.0 **** 0.06
31435 H 86.62179788034504 110.73435301776095 107.02648333498016 H 0.0 **** 0.06
31436 C 22.011537597905658 4.582880798360719 82.73228338335178 C 0.0 **** -0.24
31437 H 23.0957374107397 4.460611805450526 82.73171910433291 H 0.0 **** 0.06
31438 H 21.718014335081165 5.21992636472126 81.89800755130807 H 0.0 **** 0.06
31439 H 21.699179468294545 5.042606516041388 83.67008443276532 H 0.0 **** 0.06
31440 H 21.53701856329468 3.6067694308140688 82.63072836047309 H 0.0 **** 0.06
31441 C 71.04415970094948 31.635963307514558 70.00465615731787 C 0.0 **** -0.24
31442 H 70.58590533940671 30.6938254699767 69.70260582008132 H 0.0 **** 0.06
31443 H 71.76907144532143 31.448341299119065 70.79824182133913 H 0.0 **** 0.06
31444 H 70.2732388373804 32.31503746888852 70.36841489151544 H 0.0 **** 0.06
31445 H 71.55006303218448 32.08379221046357 69.14897440899904 H 0.0 **** 0.06
31446 C 64.51696106389969 10.618689219328019 108.63935101144705 C 0.0 **** -0.24
31447 H 64.10651198266473 10.212518838274889 107.71525725924903 H 0.0 **** 0.06
31448 H 64.07334889488709 11.595209463878831 108.83594866267174 H 0.0 **** 0.06
31449 H 65.59730286683867 10.723001309262457 108.54309271132126 H 0.0 **** 0.06
31450 H 64.28980008444847 9.94331491065492 109.46503354040601 H 0.0 **** 0.06
31451 C 100.8163635752598 34.24969829979271 99.30950697101369 C 0.0 **** -0.24
31452 H 101.07585977907888 34.955554828806456 98.51995997602782 H 0.0 **** 0.06
31453 H 101.00493257921653 34.70702935716611 100.28113508971441 H 0.0 **** 0.06
31454 H 101.42280432913486 33.349975957355184 99.20537028974755 H 0.0 **** 0.06
31455 H 99.76143867274047 33.98849490182321 99.22939248295808 H 0.0 **** 0.06
31456 C 3.6639145917590668 41.24707169157227 83.9001000205208 C 0.0 **** -0.24
31457 H 2.8783257150478363 41.38826853884737 84.64338245478777 H 0.0 **** 0.06
31458 H 3.241599851366715 41.35104178586781 82.90111225539331 H 0.0 **** 0.06
31459 H 4.094328857247575 40.25220354464324 84.01167521536584 H 0.0 **** 0.06
31460 H 4.441490362393878 41.99763015326991 84.04710385524783 H 0.0 **** 0.06
31461 C 92.21307809877055 111.58372506793484 109.52814504441963 C 0.0 **** -0.24
31462 H 92.67931212092614 110.5997873913548 109.46505232341997 H 0.0 **** 0.06
31463 H 92.85787250343603 112.25488858605615 110.09546932150246 H 0.0 **** 0.06
31464 H 91.24852646512676 111.49709136501774 110.0278448010406 H 0.0 **** 0.06
31465 H 92.06818019030354 111.98127877479183 108.52394997412236 H 0.0 **** 0.06
31466 C 120.30624443747124 63.163950014019186 17.809673701826714 C 0.0 **** -0.24
31467 H 121.24919224815113 63.59623512029669 17.473692769376115 H 0.0 **** 0.06
31468 H 119.4982850937937 63.509300186826174 17.164524807206366 H 0.0 **** 0.06
31469 H 120.11022726637017 63.47334231036145 18.835999074521183 H 0.0 **** 0.06
31470 H 120.36894072232192 62.07639597214544 17.763084497052034 H 0.0 **** 0.06
31471 C 32.79170107642955 28.075112669985593 59.59684016194282 C 0.0 **** -0.24
31472 H 31.902723358738328 27.647076682722805 60.060586822833216 H 0.0 **** 0.06
31473 H 33.66794347695637 27.49530686811012 59.88864433202497 H 0.0 **** 0.06
31474 H 32.91232422013289 29.107880379889643 59.92487686827647 H 0.0 **** 0.06
31475 H 32.68243647485265 28.048848610841084 58.51210625886273 H 0.0 **** 0.06
31476 C 27.68735145912882 36.826510102180265 28.860187162462637 C 0.0 **** -0.24
31477 H 27.56068093016276 36.398480180751164 29.854691110764634 H 0.0 **** 0.06
31478 H 26.71974046867669 37.152396028253605 28.47927978074705 H 0.0 **** 0.06
31479 H 28.1079635577411 36.07480345338527 28.192446425339597 H 0.0 **** 0.06
31480 H 28.36248639654295 37.68059477436961 28.917766194164244 H 0.0 **** 0.06
31481 C 74.67116576824253 80.2844023340927 58.45614021219691 C 0.0 **** -0.24
31482 H 74.26933166779284 80.40484128481086 57.44961400890842 H 0.0 **** 0.06
31483 H 73.84914866103176 80.15766452566021 59.16185093699607 H 0.0 **** 0.06
31484 H 75.24823445651438 81.1685839899441 58.72491818327796 H 0.0 **** 0.06
31485 H 75.31581694315634 79.40587272845329 58.48797950482997 H 0.0 **** 0.06
31486 C 10.646870258463615 108.20302603181639 100.04281838034012 C 0.0 **** -0.24
31487 H 9.645763000216082 108.32554688666605 100.4572421673654 H 0.0 **** 0.06
31488 H 10.900392921101933 109.07737626608309 99.44222356438661 H 0.0 **** 0.06
31489 H 10.673214734506058 107.31180389244267 99.41650045127142 H 0.0 **** 0.06
31490 H 11.365784237594301 108.098126833707 100.85514218042607 H 0.0 **** 0.06
31491 C 21.642793197839097 74.76351440226802 66.03514972187202 C 0.0 **** -0.24
31492 H 21.661840733271546 75.06521107104211 64.98836254799642 H 0.0 **** 0.06
31493 H 21.511414027336073 73.68303805432836 66.0995433943923 H 0.0 **** 0.06
31494 H 20.81533392862226 75.26135174324492 66.54138712473929 H 0.0 **** 0.06
31495 H 22.58258410212658 75.04445674045681 66.51130582036001 H 0.0 **** 0.06
31496 C 78.7269448227957 37.7133833085029 83.85821275947734 C 0.0 **** -0.24
31497 H 79.05029234927065 36.767146598493646 83.42418786894783 H 0.0 **** 0.06
31498 H 79.3947410610252 38.50989497430478 83.529170953456 H 0.0 **** 0.06
31499 H 78.75402434683718 37.64174404699866 84.94490801145037 H 0.0 **** 0.06
31500 H 77.71004758866187 37.933313944352705 83.53349496202247 H 0.0 **** 0.06
31501 C 104.61244197796043 31.174794151681283 59.678302672733345 C 0.0 **** -0.24
31502 H 104.74399958179913 31.92580135801461 58.89897479970217 H 0.0 **** 0.06
31503 H 105.47456389950628 31.189393979998613 60.34560755305407 H 0.0 **** 0.06
31504 H 104.52306499084477 30.189718023898166 59.221019532188414 H 0.0 **** 0.06
31505 H 103.70906997579647 31.396135651401494 60.24633266724128 H 0.0 **** 0.06
31506 C 104.97563044888005 91.62441244088734 46.41493923630969 C 0.0 **** -0.24
31507 H 103.91755185247592 91.8525326565532 46.289799588130506 H 0.0 **** 0.06
31508 H 105.54677147691513 92.10371893089683 45.61930339478698 H 0.0 **** 0.06
31509 H 105.12234739438054 90.54536038391592 46.368625944360986 H 0.0 **** 0.06
31510 H 105.31478825654943 91.99693083737358 47.38175782272481 H 0.0 **** 0.06
31511 C 113.0382748477326 48.13631653349475 79.63441627921003 C 0.0 **** -0.24
31512 H 113.75009234508695 47.833310961545806 80.40219202506239 H 0.0 **** 0.06
31513 H 112.92136270845123 47.330174831747556 78.90939814307515 H 0.0 **** 0.06
31514 H 113.40819402157072 49.028582207536004 79.12847364570777 H 0.0 **** 0.06
31515 H 112.07525615599425 48.353023441798626 80.09675949134567 H 0.0 **** 0.06
31516 C 61.526313227450714 27.910583092162646 66.7949571511875 C 0.0 **** -0.24
31517 H 61.26209450295312 28.94109890755057 66.55768990274592 H 0.0 **** 0.06
31518 H 61.46175742060319 27.758295957873038 67.87241124058738 H 0.0 **** 0.06
31519 H 62.54299016036583 27.709109453338712 66.45941662579457 H 0.0 **** 0.06
31520 H 60.83605587251492 27.23448441012328 66.29046484816001 H 0.0 **** 0.06
31521 C 87.6962511151219 105.95370279531315 18.91547810507054 C 0.0 **** -0.24
31522 H 87.20185826016149 106.1845113001794 17.97176507736008 H 0.0 **** 0.06
31523 H 88.07334224682899 106.87408409589204 19.36216335151683 H 0.0 **** 0.06
31524 H 88.52574551359243 105.27076917035583 18.733932524457284 H 0.0 **** 0.06
31525 H 86.98144302784027 105.48690396352015 19.593861058235372 H 0.0 **** 0.06
31526 C 4.660570011932771 88.08857537009968 108.80284215282228 C 0.0 **** -0.24
31527 H 4.993552131439234 87.86757205427477 109.81686166121665 H 0.0 **** 0.06
31528 H 5.485984471003125 88.51938348115146 108.23584789608182 H 0.0 **** 0.06
31529 H 3.8351768193943716 88.79981632440081 108.83904340969062 H 0.0 **** 0.06
31530 H 4.327870560050119 87.16912436680022 108.3211533981189 H 0.0 **** 0.06
31531 C 46.615725685321365 35.33529969514538 10.203060731931885 C 0.0 **** -0.24
31532 H 46.514000092695255 35.0534539834963 9.154655717508433 H 0.0 **** 0.06
31533 H 46.33156064832286 34.49295254440122 10.834006573166903 H 0.0 **** 0.06
31534 H 45.966750062160145 36.18444436739949 10.414909827357747 H 0.0 **** 0.06
31535 H 47.6514380670792 35.60860673922059 10.405977653843877 H 0.0 **** 0.06
31536 C 44.71903938864011 5.837308083153886 116.09293512336623 C 0.0 **** -0.24
31537 H 45.0666416914662 4.835269730890719 116.34218971094981 H 0.0 **** 0.06
31538 H 43.64480484859075 5.812407650233489 115.90523230824215 H 0.0 **** 0.06
31539 H 45.235648901295235 6.189019192237328 115.20005830078085 H 0.0 **** 0.06
31540 H 44.92716030988129 6.510850437363395 116.92301788546973 H 0.0 **** 0.06
31541 C 122.19382160598818 55.41332971650644 69.02362195448399 C 0.0 **** -0.24
31542 H 121.9234724016693 56.38628303663859 68.61376679501734 H 0.0 **** 0.06
31543 H 123.202527392178 55.46114561195219 69.43614287377363 H 0.0 **** 0.06
31544 H 122.15974005350921 54.66349434838207 68.23325779985237 H 0.0 **** 0.06
31545 H 121.49087195848159 55.143991050372165 69.81215643405494 H 0.0 **** 0.06
31546 C 32.47906738730351 57.76313273790305 50.61928192575334 C 0.0 **** -0.24
31547 H 32.680954545590005 57.825077355854546 51.68834110759269 H 0.0 **** 0.06
31548 H 31.791403630111134 58.559957225668114 50.3329455565904 H 0.0 **** 0.06
31549 H 32.03177538776893 56.79618471691259 50.389243855109044 H 0.0 **** 0.06
31550 H 33.41291921479829 57.872489183212934 50.06660648898571 H 0.0 **** 0.06
31551 C 94.42665340375075 30.209018782791595 53.94333136461301 C 0.0 **** -0.24
31552 H 94.48747124116278 29.449965774628964 54.72419430670198 H 0.0 **** 0.06
31553 H 93.6462126083407 29.937041633297653 53.23284511556232 H 0.0 **** 0.06
31554 H 95.38350467238831 30.273431673187602 53.42545710621872 H 0.0 **** 0.06
31555 H 94.19065056606328 31.173925446604706 54.39208287807951 H 0.0 **** 0.06
31556 C 66.44651488595551 38.34706671305054 36.72655429170652 C 0.0 **** -0.24
31557 H 66.62409426414723 38.3128798825677 37.80179007746082 H 0.0 **** 0.06
31558 H 65.68311859202575 37.61647836572223 36.46030092266352 H 0.0 **** 0.06
31559 H 67.37262381768326 38.115450357477414 36.19889973534316 H 0.0 **** 0.06
31560 H 66.10868881332078 39.34541277598959 36.44698701682999 H 0.0 **** 0.06
31561 C 74.84240390665354 31.05064268943684 21.091179138823662 C 0.0 **** -0.24
31562 H 75.85474636174314 31.389531386895527 20.86957279444519 H 0.0 **** 0.06
31563 H 74.42508117165792 30.554929695978466 20.2140516933907 H 0.0 **** 0.06
31564 H 74.22271295545897 31.908103853463686 21.35436848101321 H 0.0 **** 0.06
31565 H 74.86887432894105 30.350770794596713 21.92630174554401 H 0.0 **** 0.06
31566 C 49.1336494451873 4.014766064819501 48.52528953681943 C 0.0 **** -0.24
31567 H 49.297374787965765 5.043269487669246 48.20399553333695 H 0.0 **** 0.06
31568 H 48.06688179788293 3.7900650706861274 48.49298693130126 H 0.0 **** 0.06
31569 H 49.500450630756575 3.8897344246904133 49.544437783817244 H 0.0 **** 0.06
31570 H 49.6683351547652 3.33613985859124 47.86133792254665 H 0.0 **** 0.06
31571 C 58.12821063669941 17.740476002976795 96.07966559847833 C 0.0 **** -0.24
31572 H 59.08856993895913 18.1042846359496 96.44520140685083 H 0.0 **** 0.06
31573 H 57.82217674244015 18.32882944996086 95.21436701910153 H 0.0 **** 0.06
31574 H 57.38107948433188 17.833786296477935 96.86702275334065 H 0.0 **** 0.06
31575 H 58.223644184920175 16.693055042323742 95.79152507623374 H 0.0 **** 0.06
31576 C 56.76165947249561 33.00853116996498 98.41206155359552 C 0.0 **** -0.24
31577 H 56.11075501372187 33.882733094353426 98.38046163762087 H 0.0 **** 0.06
31578 H 56.18787622493559 32.11887173160008 98.15266611731289 H 0.0 **** 0.06
31579 H 57.17085425417591 32.896840165406076 99.41633088990224 H 0.0 **** 0.06
31580 H 57.576345130895646 33.136233175250226 97.69980839516236 H 0.0 **** 0.06
31581 C 15.296754229453654 25.320652919790106 51.57386828688166 C 0.0 **** -0.24
31582 H 15.169260825764951 25.882805002369217 50.648115802071686 H 0.0 **** 0.06
31583 H 14.556697606976826 24.52057299139355 51.61652409442436 H 0.0 **** 0.06
31584 H 15.159987873047186 25.987273409866944 52.4250957484667 H 0.0 **** 0.06
31585 H 16.297615286878255 24.89273580950227 51.60452917543091 H 0.0 **** 0.06
31586 C 83.06099928724711 107.29941561400858 64.32142891908978 C 0.0 **** -0.24
31587 H 82.72099051479807 107.74160649352021 65.25823595668368 H 0.0 **** 0.06
31588 H 82.35873331578148 107.54847542621792 63.525877006975406 H 0.0 **** 0.06
31589 H 83.11723797617248 106.2159532595241 64.43130941072309 H 0.0 **** 0.06
31590 H 84.04763407135289 107.69082649725763 64.07229344045413 H 0.0 **** 0.06
31591 C 78.58590922648554 13.45450785375425 59.79773789830562 C 0.0 **** -0.24
31592 H 78.1491875916899 12.463842577885373 59.67605967587293 H 0.0 **** 0.06
31593 H 78.49143386077924 14.01045980146364 58.86529651666091 H 0.0 **** 0.06
31594 H 79.64011667720155 13.357253756857403 60.057661801832644 H 0.0 **** 0.06
31595 H 78.0630950227143 13.987026071465948 60.593221320141616 H 0.0 **** 0.06
31596 C 89.88302730372948 95.29369918120227 24.06899140449078 C 0.0 **** -0.24
31597 H 89.37317025280055 94.70274085984312 23.30850659405106 H 0.0 **** 0.06
31598 H 90.95925690097278 95.14036417351801 23.985940873746742 H 0.0 **** 0.06
31599 H 89.54594031881481 94.98315538676331 25.057743154317663 H 0.0 **** 0.06
31600 H 89.654505491386 96.34998605088282 23.922253417176698 H 0.0 **** 0.06
31601 C 40.72857132293103 113.34391190661194 99.12366358698767 C 0.0 **** -0.24
31602 H 41.67198249293847 113.57404320473916 99.61708631359423 H 0.0 **** 0.06
31603 H 40.921814701890355 112.7657780356498 98.21964290490195 H 0.0 **** 0.06
31604 H 40.22092278049206 114.27245929463416 98.86001437323551 H 0.0 **** 0.06
31605 H 40.09837038056179 112.76407429417856 99.79764223447825 H 0.0 **** 0.06
31606 C 95.48541851994617 54.747406709941174 82.35190175746601 C 0.0 **** -0.24
31607 H 94.52195070816131 55.257841698915286 82.35333930182745 H 0.0 **** 0.06
31608 H 95.34604798076259 53.71038103404783 82.04453585622201 H 0.0 **** 0.06
31609 H 95.91190959625061 54.77556197189247 83.35500285731862 H 0.0 **** 0.06
31610 H 96.1587660024961 55.24659449359464 81.6553891359305 H 0.0 **** 0.06
31611 C 60.98736179718677 77.69927455969722 28.397694045870168 C 0.0 **** -0.24
31612 H 60.99603271642555 77.08910537330217 29.30135911533833 H 0.0 **** 0.06
31613 H 61.61143610716453 78.58042793090115 28.54819702304289 H 0.0 **** 0.06
31614 H 59.96595625118879 78.00938908438951 28.178943557421462 H 0.0 **** 0.06
31615 H 61.37714635389219 77.11569903775427 27.56305232917046 H 0.0 **** 0.06
31616 C 36.67073201071659 83.46335771731694 55.80079252324464 C 0.0 **** -0.24
31617 H 35.61424452624425 83.28733331320637 56.00162752784149 H 0.0 **** 0.06
31618 H 36.879093861867375 83.25949937926003 54.74990322600166 H 0.0 **** 0.06
31619 H 37.27341725293775 82.80345117977245 56.42589656679638 H 0.0 **** 0.06
31620 H 36.914892683626874 84.50110604033048 56.02529875535305 H 0.0 **** 0.06
31621 C 113.18676904341191 13.189109227761094 71.24645280934851 C 0.0 **** -0.24
31622 H 112.98128938743946 12.196394048326255 70.8462768501058 H 0.0 **** 0.06
31623 H 112.24618882131034 13.684184983840026 71.49016787061524 H 0.0 **** 0.06
31624 H 113.72460984637965 13.77567955660433 70.50129398282067 H 0.0 **** 0.06
31625 H 113.7952021757034 13.099272347451006 72.14580676177272 H 0.0 **** 0.06
31626 C 70.704327414505 69.5503131880059 57.522598549709954 C 0.0 **** -0.24
31627 H 71.27547166597347 70.06022919253559 58.29844456826302 H 0.0 **** 0.06
31628 H 71.11481093617704 69.80299274779583 56.544794138441205 H 0.0 **** 0.06
31629 H 69.66196974825931 69.8652622275043 57.57163657087989 H 0.0 **** 0.06
31630 H 70.76629880659902 68.47232671362264 57.6760322846647 H 0.0 **** 0.06
31631 C 112.87520822191806 38.50610035426877 56.79932048760256 C 0.0 **** -0.24
31632 H 113.77474120441124 38.310857015017405 56.214909997728 H 0.0 **** 0.06
31633 H 112.09261107596373 38.8882557168335 56.14401360878537 H 0.0 **** 0.06
31634 H 113.09704072494989 39.24346608610119 57.56999433422345 H 0.0 **** 0.06
31635 H 112.53830996528805 37.581255361793126 57.2672771288527 H 0.0 **** 0.06
31636 C 95.28846542413186 18.0851943494962 35.74128219002142 C 0.0 **** -0.24
31637 H 95.14211969287399 18.266846299815395 36.80643554662535 H 0.0 **** 0.06
31638 H 95.79954734189135 17.132543536257714 35.60256368259968 H 0.0 **** 0.06
31639 H 95.89134103540417 18.888520072685946 35.31607636717723 H 0.0 **** 0.06
31640 H 94.32002184984987 18.05504541071036 35.2424122775287 H 0.0 **** 0.06
31641 C 31.31233099004794 121.7142251557363 70.73802820384608 C 0.0 **** -0.24
31642 H 31.551365199329098 120.65230412716245 70.7807180547334 H 0.0 **** 0.06
31643 H 32.22618398317363 122.29764303037456 70.85809285622543 H 0.0 **** 0.06
31644 H 30.616005873187248 121.9620088851424 71.5389743108042 H 0.0 **** 0.06
31645 H 30.85706758663497 121.94526466780903 69.7758146011304 H 0.0 **** 0.06
31646 C 120.91048646044274 46.58462827618399 87.16464285935336 C 0.0 **** -0.24
31647 H 121.6956552021197 46.754414224160826 86.42766054749384 H 0.0 **** 0.06
31648 H 121.26526225912765 46.888862831744916 88.14993198400097 H 0.0 **** 0.06
31649 H 120.65119557806996 45.52581838679225 87.18178968095523 H 0.0 **** 0.06
31650 H 120.02988106741171 47.16991808311491 86.89786734729731 H 0.0 **** 0.06
31651 C 28.35899974771246 7.151647038010168 112.09287145098548 C 0.0 **** -0.24
31652 H 28.094993138243638 8.175652514696608 112.35721672989749 H 0.0 **** 0.06
31653 H 27.852307693581736 6.460804910954039 112.76851083681171 H 0.0 **** 0.06
31654 H 29.437169217750352 7.020623990318654 112.17964489589704 H 0.0 **** 0.06
31655 H 28.04896020389475 6.949946223737953 111.06759959159385 H 0.0 **** 0.06
31656 C 106.40951277565455 51.27787034268488 60.57681459172931 C 0.0 **** -0.24
31657 H 106.70677583227086 50.23002164681628 60.60053902575995 H 0.0 **** 0.06
31658 H 105.32166898658875 51.34764433180476 60.614427067880406 H 0.0 **** 0.06
31659 H 106.7719792283176 51.73694064348797 59.65625892295217 H 0.0 **** 0.06
31660 H 106.83739115876571 51.79702777045918 61.43432422655338 H 0.0 **** 0.06
31661 C 86.99402972098903 52.95510422912707 13.781714763631925 C 0.0 **** -0.24
31662 H 86.93569218394839 53.36849589684334 12.77375875731451 H 0.0 **** 0.06
31663 H 86.24499105784673 53.433728504406645 14.413620680751166 H 0.0 **** 0.06
31664 H 87.98670729599542 53.13779656000065 14.191849877784875 H 0.0 **** 0.06
31665 H 86.80718352673819 51.88188914406021 13.744566293000844 H 0.0 **** 0.06
31666 C 65.9677740606104 62.50007870193293 72.96525422351564 C 0.0 **** -0.24
31667 H 66.35107169398418 61.795906749746 73.70459716662398 H 0.0 **** 0.06
31668 H 64.93975947230868 62.76430664047118 73.21552167349338 H 0.0 **** 0.06
31669 H 65.99507260922755 62.040592797939105 71.97753584936092 H 0.0 **** 0.06
31670 H 66.58533987679994 63.397863878391256 72.96640749023845 H 0.0 **** 0.06
31671 C 85.58920996599318 50.87318183617458 93.33053877198614 C 0.0 **** -0.24
31672 H 86.5760914047004 50.41641263186726 93.24593889223118 H 0.0 **** 0.06
31673 H 85.30141952391784 51.29680253935567 92.36848197776547 H 0.0 **** 0.06
31674 H 85.61790911029894 51.66251364296798 94.08276471983788 H 0.0 **** 0.06
31675 H 84.86342586840641 50.11518160364594 93.62626374222057 H 0.0 **** 0.06
31676 C 98.15727575068243 71.36772945741657 65.95631876195071 C 0.0 **** -0.24
31677 H 98.2836916716596 71.64868858709414 67.0015350420482 H 0.0 **** 0.06
31678 H 97.3596979479452 71.96551259978511 65.51412407294808 H 0.0 **** 0.06
31679 H 97.89809969167456 70.31133541237668 65.89273047649479 H 0.0 **** 0.06
31680 H 99.08775797330932 71.54678668241633 65.41682222080485 H 0.0 **** 0.06
31681 C 42.530634504464686 24.610341631225083 58.184089244525175 C 0.0 **** -0.24
31682 H 43.0126726379677 25.588250217674357 58.20782163236965 H 0.0 **** 0.06
31683 H 43.20998200720294 23.86158338676671 58.592633298828865 H 0.0 **** 0.06
31684 H 42.28359328175205 24.35359967820409 57.15332428275301 H 0.0 **** 0.06
31685 H 41.6191971808251 24.640164419416948 58.780217311980955 H 0.0 **** 0.06
31686 C 17.904824169512608 61.40372262216713 32.2446983939289 C 0.0 **** -0.24
31687 H 18.56162454590458 61.53031941374737 33.104676640375146 H 0.0 **** 0.06
31688 H 17.730919775879784 62.37234399781831 31.774152837424936 H 0.0 **** 0.06
31689 H 16.954188248614116 60.983106645088476 32.57252254562894 H 0.0 **** 0.06
31690 H 18.37170088866992 60.72985759159037 31.52659801208381 H 0.0 **** 0.06
31691 C 119.08844039434578 83.11608876043681 119.16501430467488 C 0.0 **** -0.24
31692 H 120.05361083153197 82.8418667102095 119.59057324247118 H 0.0 **** 0.06
31693 H 118.28944722145759 82.74923655976261 119.81047505829784 H 0.0 **** 0.06
31694 H 118.98873577161623 82.67047339008673 118.17560588428634 H 0.0 **** 0.06
31695 H 119.02100738894316 84.20088715949896 119.08411102958198 H 0.0 **** 0.06
31696 C 120.92204995482786 35.07872748976541 76.855596345392 C 0.0 **** -0.24
31697 H 121.80095538480782 34.61873422619277 76.40389559077326 H 0.0 **** 0.06
31698 H 121.19737743104801 35.533955076854966 77.8069547189277 H 0.0 **** 0.06
31699 H 120.15981684282896 34.31727303447013 77.02438316752665 H 0.0 **** 0.06
31700 H 120.52806213003849 35.84430841100726 76.18635226530756 H 0.0 **** 0.06
31701 C 18.20714514257355 99.24838837724178 97.31147259742505 C 0.0 **** -0.24
31702 H 18.667153546136205 99.75210152727004 96.4619142394649 H 0.0 **** 0.06
31703 H 17.140841237117144 99.11518488448272 97.12097823244878 H 0.0 **** 0.06
31704 H 18.343411433424308 99.85253249263044 98.20821140694048 H 0.0 **** 0.06
31705 H 18.674784825649226 98.27419915642278 97.45451323139585 H 0.0 **** 0.06
31706 C 6.005298646404903 65.8914853898799 58.03539432541487 C 0.0 **** -0.24
31707 H 6.726738773519198 66.04300114759317 57.23252743536443 H 0.0 **** 0.06
31708 H 5.085274592196672 65.47483748320502 57.62374584900783 H 0.0 **** 0.06
31709 H 5.789473913232886 66.84642426940454 58.51492176838707 H 0.0 **** 0.06
31710 H 6.419707306670919 65.20167865931691 58.770382248900205 H 0.0 **** 0.06
31711 C 94.25618292870183 100.54623229469914 79.20144722347035 C 0.0 **** -0.24
31712 H 95.18903436184439 100.05353488868735 79.47437681653676 H 0.0 **** 0.06
31713 H 93.41692219703577 99.99094658598054 79.61931597232933 H 0.0 **** 0.06
31714 H 94.16716391959744 100.5798358440021 78.11576010089985 H 0.0 **** 0.06
31715 H 94.25269650504515 101.56241465127985 79.59822613140591 H 0.0 **** 0.06
31716 C 111.4396401977476 73.6801733942822 72.78321143303657 C 0.0 **** -0.24
31717 H 111.16396328274536 72.66276214700241 73.0596597838263 H 0.0 **** 0.06
31718 H 112.47722615305278 73.69688151168515 72.44758450982098 H 0.0 **** 0.06
31719 H 111.3269264510729 74.33508287080258 73.64782370287048 H 0.0 **** 0.06
31720 H 110.79150690175072 74.0267221335015 71.9783273879691 H 0.0 **** 0.06
31721 C 16.378540178412266 44.72394755869006 57.75741785083545 C 0.0 **** -0.24
31722 H 17.05255295026538 45.35975727072446 57.1821935498142 H 0.0 **** 0.06
31723 H 15.979081494706392 45.28804945212015 58.60101788483587 H 0.0 **** 0.06
31724 H 16.924620027069864 43.85558582084283 58.12584805363764 H 0.0 **** 0.06
31725 H 15.558074973800672 44.39436080263684 57.11955455951062 H 0.0 **** 0.06
31726 C 49.61054645194307 61.83874326344022 35.46981696656863 C 0.0 **** -0.24
31727 H 49.34480264329365 60.993528029351324 34.83465747169839 H 0.0 **** 0.06
31728 H 50.67413978761768 61.795698491179735 35.70334526487213 H 0.0 **** 0.06
31729 H 49.0327038680558 61.794721347566224 36.39285929175148 H 0.0 **** 0.06
31730 H 49.38971406613303 62.769527630317754 34.94665189771489 H 0.0 **** 0.06
31731 C 120.00491613816796 66.25423686086526 21.24445602737893 C 0.0 **** -0.24
31732 H 120.44382545547049 65.3011192611398 21.54198193304464 H 0.0 **** 0.06
31733 H 119.47400300606013 66.12922503346633 20.30038958120886 H 0.0 **** 0.06
31734 H 120.7940940429765 66.99539043497182 21.122301683634475 H 0.0 **** 0.06
31735 H 119.30729452018686 66.58716978196273 22.012476103165966 H 0.0 **** 0.06
31736 C 84.59804328606305 98.5255344288691 99.62532698452986 C 0.0 **** -0.24
31737 H 85.2924844040711 97.68643194369935 99.67806917767743 H 0.0 **** 0.06
31738 H 84.58473431148849 99.04592466098833 100.58319442232056 H 0.0 **** 0.06
31739 H 83.59772587140702 98.15509436746274 99.39883544212441 H 0.0 **** 0.06
31740 H 84.91664638112712 99.21270102122617 98.84251974024306 H 0.0 **** 0.06
31741 C 45.27762612706273 100.7304817766271 112.35981175799684 C 0.0 **** -0.24
31742 H 45.55379848991953 101.66553896577838 111.87203616222888 H 0.0 **** 0.06
31743 H 44.1915048575938 100.64866609155399 112.3980464910534 H 0.0 **** 0.06
31744 H 45.680037626811426 100.71680699981056 113.37294212456773 H 0.0 **** 0.06
31745 H 45.68613985416917 99.89274670341396 111.79539031631344 H 0.0 **** 0.06
31746 C 37.98086350986637 115.38851043918046 0.4753844638152316 C 0.0 **** -0.24
31747 H 37.913793141397264 116.24517371857368 1.144994533295856 H 0.0 **** 0.06
31748 H 37.329914662175156 114.59263179433368 0.8380053954077642 H 0.0 **** 0.06
31749 H 39.009631231862045 115.03050326262372 0.44492253540790827 H 0.0 **** 0.06
31750 H 37.669617113574816 115.68491694497004 -0.526090932766337 H 0.0 **** 0.06
31751 C 60.91771047285078 6.832420393413372 83.02096827605442 C 0.0 **** -0.24
31752 H 60.11743924566536 7.259094936246612 82.41524969644962 H 0.0 **** 0.06
31753 H 61.819090086971606 6.736468242389094 82.41489719455495 H 0.0 **** 0.06
31754 H 60.61502955344668 5.847878498490388 83.38031317535246 H 0.0 **** 0.06
31755 H 61.117019884469464 7.484322900508204 83.87054871306381 H 0.0 **** 0.06
31756 C 29.014654478052975 65.4215850871999 44.27004267860988 C 0.0 **** -0.24
31757 H 28.972800903282675 64.9399443865143 43.29332029157197 H 0.0 **** 0.06
31758 H 29.71978944606854 64.88837974205825 44.90846567462381 H 0.0 **** 0.06
31759 H 28.024957711745174 65.40446942046242 44.72673131215646 H 0.0 **** 0.06
31760 H 29.34204638996136 66.45502874029683 44.15029310434306 H 0.0 **** 0.06
31761 C 29.167686904566438 61.72636736718877 44.53230454620612 C 0.0 **** -0.24
31762 H 30.084457634339657 61.14372228849075 44.43050870599333 H 0.0 **** 0.06
31763 H 29.239801637415894 62.36620365362347 45.41207789670409 H 0.0 **** 0.06
31764 H 28.31971357641791 61.050975128156466 44.641806314789704 H 0.0 **** 0.06
31765 H 29.029341312961662 62.342292377606924 43.64434230293449 H 0.0 **** 0.06
31766 C 45.768675088315376 80.64405756706773 107.93590468447044 C 0.0 **** -0.24
31767 H 45.966964370448665 81.5004608296529 108.57945955786272 H 0.0 **** 0.06
31768 H 44.73234655352198 80.67576349274077 107.5986494904109 H 0.0 **** 0.06
31769 H 45.94228462812036 79.7231695049957 108.49271438270554 H 0.0 **** 0.06
31770 H 46.43290118102027 80.6777032630983 107.07234009954209 H 0.0 **** 0.06
31771 C 20.532554066901273 44.50805225028418 83.58031360301973 C 0.0 **** -0.24
31772 H 21.46141416469397 44.40175082723826 84.14198533652998 H 0.0 **** 0.06
31773 H 20.43606038584053 45.53518672022274 83.22919560100149 H 0.0 **** 0.06
31774 H 19.68897680025119 44.263452397044176 84.22472368902217 H 0.0 **** 0.06
31775 H 20.54654441710086 43.830801857987325 82.72583987334036 H 0.0 **** 0.06
31776 C 35.23132166577484 59.2996038065709 98.35186816394884 C 0.0 **** -0.24
31777 H 35.593927149550325 58.49391548097299 97.71344532625466 H 0.0 **** 0.06
31778 H 34.4398571644916 58.92202940333894 98.99937001711257 H 0.0 **** 0.06
31779 H 34.84044958890618 60.10622203474878 97.73089374107448 H 0.0 **** 0.06
31780 H 36.05184256738187 59.67698050091872 98.96156347342301 H 0.0 **** 0.06
31781 C 59.88433700771225 104.8495159030135 47.15936102070221 C 0.0 **** -0.24
31782 H 59.04528711190923 104.42569549119924 47.71078339722749 H 0.0 **** 0.06
31783 H 60.35543785242183 104.06857708589274 46.55966703824086 H 0.0 **** 0.06
31784 H 60.6123067533255 105.25788100987992 47.86051373590621 H 0.0 **** 0.06
31785 H 59.5251944378723 105.64330405165532 46.504373144361935 H 0.0 **** 0.06
31786 C 61.388385797144984 42.73966416960735 77.99627984379063 C 0.0 **** -0.24
31787 H 62.10872375687321 42.99570110597297 77.22025512794201 H 0.0 **** 0.06
31788 H 60.71234177873021 41.96910902714947 77.6244325094147 H 0.0 **** 0.06
31789 H 60.81433603883644 43.62686175195407 78.26571910943213 H 0.0 **** 0.06
31790 H 61.91524160212328 42.367351447793396 78.87403735377279 H 0.0 **** 0.06
31791 C 12.923806362455935 24.056696468730905 71.69477361411569 C 0.0 **** -0.24
31792 H 13.343007505496388 25.038448209396194 71.91512118370511 H 0.0 **** 0.06
31793 H 13.607993170215082 23.282556365018024 72.04470466253474 H 0.0 **** 0.06
31794 H 12.78065909426337 23.955350832654915 70.61898085981554 H 0.0 **** 0.06
31795 H 11.963665649779244 23.94908410866813 72.20070897989405 H 0.0 **** 0.06
31796 C 98.35507142181845 106.11064068573273 90.69758100605154 C 0.0 **** -0.24
31797 H 99.3481837556233 105.71309279514662 90.48779132847454 H 0.0 **** 0.06
31798 H 97.84272708556338 105.45692459758845 91.40252541036358 H 0.0 **** 0.06
31799 H 97.78309730822414 106.16621530685339 89.77080473170477 H 0.0 **** 0.06
31800 H 98.44678905130598 107.10876591979448 91.12752763250958 H 0.0 **** 0.06
31801 C 114.71702353419491 56.44420834054469 80.5042006340642 C 0.0 **** -0.24
31802 H 114.51316632571448 57.51202661908857 80.57699098674001 H 0.0 **** 0.06
31803 H 114.82470146180091 56.16575430987251 79.4562899039556 H 0.0 **** 0.06
31804 H 113.89181420268051 55.88568184949267 80.94710118913684 H 0.0 **** 0.06
31805 H 115.63926077848657 56.2139767536996 81.03923344110558 H 0.0 **** 0.06
31806 C 59.566427343006104 114.0930771309076 58.20215110989758 C 0.0 **** -0.24
31807 H 59.96618430721208 114.30131461120305 59.19519024149211 H 0.0 **** 0.06
31808 H 60.25054371612938 113.43363235908461 57.66659196346637 H 0.0 **** 0.06
31809 H 59.45514406029006 115.02698229483329 57.65169559403987 H 0.0 **** 0.06
31810 H 58.59447113561283 113.60931894380514 58.2972418957551 H 0.0 **** 0.06
31811 C 5.4697781440162885 113.25478821107191 60.19619562978837 C 0.0 **** -0.24
31812 H 5.781368475412648 114.12361189043966 59.616023213001064 H 0.0 **** 0.06
31813 H 4.826274569720454 112.62195275156887 59.584753417534664 H 0.0 **** 0.06
31814 H 4.923480463871954 113.58357908421159 61.07924400686978 H 0.0 **** 0.06
31815 H 6.349915026904853 112.68936140185792 60.50339386260952 H 0.0 **** 0.06
31816 C 8.712401869972666 42.621574435184094 90.5287631760369 C 0.0 **** -0.24
31817 H 9.357958949434106 43.457700424244656 90.79604480930038 H 0.0 **** 0.06
31818 H 8.598109404899674 42.5818476152443 89.4453324392554 H 0.0 **** 0.06
31819 H 7.735707636666888 42.75459514160837 90.99290209585712 H 0.0 **** 0.06
31820 H 9.158237313243944 41.691296055340935 90.88108694006905 H 0.0 **** 0.06
31821 C 48.03934918284065 34.83913344508403 97.4642611418704 C 0.0 **** -0.24
31822 H 48.35070342702349 35.79637529494403 97.04594103409414 H 0.0 **** 0.06
31823 H 46.960930124774876 34.845882819232656 97.62186157776904 H 0.0 **** 0.06
31824 H 48.545233937622896 34.67847054318145 98.41670180614432 H 0.0 **** 0.06
31825 H 48.30173735380086 34.037896156665624 96.77295048814858 H 0.0 **** 0.06
31826 C 0.3168480459929981 116.39841026301914 71.09778176428406 C 0.0 **** -0.24
31827 H -0.15855546084421235 117.21881151730133 71.63598753518434 H 0.0 **** 0.06
31828 H -0.23327873200085492 116.20142757823515 70.17717406993651 H 0.0 **** 0.06
31829 H 0.31421598366624437 115.50511468855402 71.72161841384565 H 0.0 **** 0.06
31830 H 1.344800916816979 116.67110645642904 70.85625354224965 H 0.0 **** 0.06
31831 C 45.2687088637048 43.59246789612155 61.01980132845221 C 0.0 **** -0.24
31832 H 45.70807932529115 44.500795724539444 60.60739220216632 H 0.0 **** 0.06
31833 H 44.20865393057997 43.75809896675321 61.21460911026764 H 0.0 **** 0.06
31834 H 45.77351709647107 43.335905167814644 61.95201344553602 H 0.0 **** 0.06
31835 H 45.38460570835551 42.77672861529493 60.30699461381436 H 0.0 **** 0.06
31836 C 73.29364145910537 41.52670719121762 10.110246003044807 C 0.0 **** -0.24
31837 H 73.3705207404571 41.320361203337335 9.043289129125377 H 0.0 **** 0.06
31838 H 74.07666064937465 42.22750434198909 10.401998466600926 H 0.0 **** 0.06
31839 H 73.41081486556808 40.597635293450054 10.66873948609684 H 0.0 **** 0.06
31840 H 72.31712201364124 41.96052429366483 10.32717839995307 H 0.0 **** 0.06
31841 C 105.15169515578353 115.17701652121801 51.70425162172589 C 0.0 **** -0.24
31842 H 105.94473186433817 115.19837606888657 50.956618229085734 H 0.0 **** 0.06
31843 H 105.27149029675633 116.02207502736624 52.38318862057719 H 0.0 **** 0.06
31844 H 105.2088060204446 114.24657284222661 52.26881607083979 H 0.0 **** 0.06
31845 H 104.1831333585913 115.24305414816834 51.208596289408064 H 0.0 **** 0.06
31846 C 86.9689047475699 32.476324428441174 115.10362981834874 C 0.0 **** -0.24
31847 H 87.32325525405159 33.27845614341367 114.45634970040152 H 0.0 **** 0.06
31848 H 87.44381894448185 32.56154807467334 116.08090641799603 H 0.0 **** 0.06
31849 H 87.22220244675702 31.512689165619918 114.65953119276097 H 0.0 **** 0.06
31850 H 85.88768155632869 32.55126082020619 115.21618217894813 H 0.0 **** 0.06
31851 C 25.784488095147054 95.55737950092953 75.47043683001462 C 0.0 **** -0.24
31852 H 25.700956200079958 95.84246577978308 74.42206651263672 H 0.0 **** 0.06
31853 H 26.54485293123895 94.78263635548609 75.57656217834597 H 0.0 **** 0.06
31854 H 24.825795885518147 95.17519280696138 75.82149626065478 H 0.0 **** 0.06
31855 H 26.06759482131139 96.42718908946406 76.06217657183007 H 0.0 **** 0.06
31856 C 8.62545903535451 15.6124490507014 61.95555971220812 C 0.0 **** -0.24
31857 H 9.42131837871483 15.675820503316828 61.212502396897015 H 0.0 **** 0.06
31858 H 7.6899613248899925 15.348493540990262 61.4634229508549 H 0.0 **** 0.06
31859 H 8.516497590385057 16.57519749475304 62.45389384708361 H 0.0 **** 0.06
31860 H 8.876872080948147 14.848264860327617 62.692337317691816 H 0.0 **** 0.06
31861 C 87.76881163247452 94.17631340036391 13.812962927032913 C 0.0 **** -0.24
31862 H 87.55265610928069 93.3099188684867 14.437751221524024 H 0.0 **** 0.06
31863 H 86.93901305342916 94.88067106695183 13.869334121209334 H 0.0 **** 0.06
31864 H 87.90401395302064 93.85567463510964 12.779811309170867 H 0.0 **** 0.06
31865 H 88.68046579914761 94.66045668048022 14.165133586523922 H 0.0 **** 0.06
31866 C 69.96724012470472 114.19298425969623 103.62617088016606 C 0.0 **** -0.24
31867 H 70.12351584592278 114.54740646025007 102.60727739396958 H 0.0 **** 0.06
31868 H 70.8684227129585 113.69094334677976 103.97766052756282 H 0.0 **** 0.06
31869 H 69.13158990905404 113.49354865304937 103.64209759168727 H 0.0 **** 0.06
31870 H 69.74539887678475 115.03939602132562 104.27550644279921 H 0.0 **** 0.06
31871 C 75.91465665537126 35.485053362650504 88.8626107390102 C 0.0 **** -0.24
31872 H 76.98343622602016 35.294308943998146 88.96465964908913 H 0.0 **** 0.06
31873 H 75.40280103708236 34.555969234057784 88.60973390158739 H 0.0 **** 0.06
31874 H 75.75034119939977 36.217560951814136 88.07281003623515 H 0.0 **** 0.06
31875 H 75.52338885448313 35.87124404423884 89.80462691694333 H 0.0 **** 0.06
31876 C 39.81523305922795 78.07627417513135 75.04192021547408 C 0.0 **** -0.24
31877 H 39.783045682324456 79.16504342714802 75.00357170985873 H 0.0 **** 0.06
31878 H 40.44199634089176 77.76125078844697 75.87716405584365 H 0.0 **** 0.06
31879 H 40.22896734957786 77.69192689757398 74.11039825947779 H 0.0 **** 0.06
31880 H 38.805645247860156 77.6885757857512 75.17866285256639 H 0.0 **** 0.06
31881 C 54.681015112322115 32.87095334720294 71.64113954526022 C 0.0 **** -0.24
31882 H 54.33493806353502 32.09410153429462 72.32397345308368 H 0.0 **** 0.06
31883 H 55.59235468726504 33.32028996074456 72.0360052571798 H 0.0 **** 0.06
31884 H 53.91101383189874 33.63551714505223 71.54036093038445 H 0.0 **** 0.06
31885 H 54.88605379238115 32.42994268953282 70.66531993849253 H 0.0 **** 0.06
31886 C 83.76403938849685 93.3982075485176 0.25863795226588593 C 0.0 **** -0.24
31887 H 84.44307094946211 93.92866899411649 0.9262478137643715 H 0.0 **** 0.06
31888 H 83.17815481784172 94.11956831459992 -0.3113910551936563 H 0.0 **** 0.06
31889 H 83.09562731836547 92.77028104604639 0.8465288112363449 H 0.0 **** 0.06
31890 H 84.34010969705537 92.77591940222095 -0.42550423959935735 H 0.0 **** 0.06
31891 C 97.12801963851413 77.28887932528951 104.83626370036683 C 0.0 **** -0.24
31892 H 96.56250600293177 76.3564185315557 104.82105172638015 H 0.0 **** 0.06
31893 H 98.12182574704363 77.10443715494623 105.2441161597169 H 0.0 **** 0.06
31894 H 96.60864865180756 78.01787957513284 105.45874950337725 H 0.0 **** 0.06
31895 H 97.21725118001737 77.67553058374963 103.8212885087998 H 0.0 **** 0.06
31896 C 34.58601465204612 84.48712886612591 88.46488148964761 C 0.0 **** -0.24
31897 H 35.66233797181201 84.34294707475328 88.55478037265422 H 0.0 **** 0.06
31898 H 34.12695262901008 84.42107503668174 89.45178327500503 H 0.0 **** 0.06
31899 H 34.168755795077175 83.71645575406353 87.81762491962076 H 0.0 **** 0.06
31900 H 34.38549542755652 85.4693416479619 88.03551767216533 H 0.0 **** 0.06
31901 C 39.52752182553258 37.55017999929706 67.00983182357623 C 0.0 **** -0.24
31902 H 39.60671424063563 36.62853348703652 66.43440474255479 H 0.0 **** 0.06
31903 H 40.308542923772414 38.24265351567004 66.69587226992562 H 0.0 **** 0.06
31904 H 39.64490299338607 37.32795918637012 68.07045932662675 H 0.0 **** 0.06
31905 H 38.54987729007305 38.002271173886854 66.83982030740614 H 0.0 **** 0.06
31906 C 78.48673114815281 60.069033416027395 12.674837889178065 C 0.0 **** -0.24
31907 H 78.7477511145658 59.04394440017015 12.413875905943883 H 0.0 **** 0.06
31908 H 78.58453294274003 60.703927706915266 11.793717449580214 H 0.0 **** 0.06
31909 H 79.15795918424635 60.42693233302998 13.456398823690108 H 0.0 **** 0.06
31910 H 77.4590750721689 60.10172132319673 13.03501777621375 H 0.0 **** 0.06
31911 C 67.36212533867445 59.015015711995595 37.266126725658296 C 0.0 **** -0.24
31912 H 68.06474866484524 58.81921413294693 38.07630408224935 H 0.0 **** 0.06
31913 H 67.71401976843418 58.529309325179106 36.35570716679737 H 0.0 **** 0.06
31914 H 67.288195608509 60.08923764542842 37.10105800693043 H 0.0 **** 0.06
31915 H 66.38127676762008 58.619914317448696 37.53323564819513 H 0.0 **** 0.06
31916 C 108.25793514924516 37.79735513413857 37.55051023040221 C 0.0 **** -0.24
31917 H 109.10120737610424 37.393608920554186 38.112495264162135 H 0.0 **** 0.06
31918 H 108.20546281357895 38.87598681446008 37.701044357738 H 0.0 **** 0.06
31919 H 107.33534688798858 37.335762803731996 37.90022935035529 H 0.0 **** 0.06
31920 H 108.39243167373382 37.58412879161784 36.49018559782829 H 0.0 **** 0.06
31921 C 74.59883249562608 113.3633986156305 86.82463922813275 C 0.0 **** -0.24
31922 H 75.43632859875413 112.89269575907142 87.34103763258133 H 0.0 **** 0.06
31923 H 73.66392863308448 112.9320561012542 87.18314384654414 H 0.0 **** 0.06
31924 H 74.69125791382379 113.19229834609365 85.75180214468327 H 0.0 **** 0.06
31925 H 74.60582695897196 114.43483281499576 87.02399555270449 H 0.0 **** 0.06
31926 C 6.730745615650637 104.01772247414979 112.14762095402679 C 0.0 **** -0.24
31927 H 5.908926986213142 104.04870983175226 112.86365245171638 H 0.0 **** 0.06
31928 H 6.3443122113245884 103.75293864961068 111.163277063647 H 0.0 **** 0.06
31929 H 7.459186090018857 103.270984147322 112.4644497795914 H 0.0 **** 0.06
31930 H 7.209412998988331 104.99582431745102 112.10043572893318 H 0.0 **** 0.06
31931 C 96.45239898578231 12.841677722278376 89.8520513956552 C 0.0 **** -0.24
31932 H 96.57597320726373 11.973738623685648 89.2033216087294 H 0.0 **** 0.06
31933 H 96.74707011872331 12.578787816531449 90.86867523262526 H 0.0 **** 0.06
31934 H 95.40883577571267 13.15425724722543 89.84450665702064 H 0.0 **** 0.06
31935 H 97.07971484954317 13.656915402813482 89.4907336780818 H 0.0 **** 0.06
31936 C 25.426789474565084 12.815239913712446 109.68332371359006 C 0.0 **** -0.24
31937 H 25.066581033989166 13.65615478156721 110.2760371340143 H 0.0 **** 0.06
31938 H 24.988911525732277 12.861300223183164 108.68508897015852 H 0.0 **** 0.06
31939 H 25.136443760249648 11.881055971443928 110.16422585173811 H 0.0 **** 0.06
31940 H 26.512366736539306 12.8629073987032 109.60631807021593 H 0.0 **** 0.06
31941 C 52.77391264043655 15.20195306245705 32.320154099486444 C 0.0 **** -0.24
31942 H 52.65878315591888 14.120789707516849 32.40172720146336 H 0.0 **** 0.06
31943 H 52.030662931675465 15.693601891140815 32.94826273641877 H 0.0 **** 0.06
31944 H 52.63172314215063 15.504582275025257 31.282488517311663 H 0.0 **** 0.06
31945 H 53.77319468195637 15.48533179770908 32.647916090085005 H 0.0 **** 0.06
31946 C 56.121460729564035 7.953238887027453 120.93149700571325 C 0.0 **** -0.24
31947 H 55.955978772147546 7.604933071918108 119.91211685322605 H 0.0 **** 0.06
31948 H 56.77446515606562 7.253227910518994 121.45287018265728 H 0.0 **** 0.06
31949 H 55.1665364645234 8.016831614999315 121.45261763290114 H 0.0 **** 0.06
31950 H 56.58875837811439 8.937892618628084 120.90739125408186 H 0.0 **** 0.06
31951 C 107.7418511563888 55.302058888031475 37.85730821464571 C 0.0 **** -0.24
31952 H 108.62607375751946 54.76161023276767 38.19541438142656 H 0.0 **** 0.06
31953 H 107.33384234161167 54.814821371545484 36.97163866638533 H 0.0 **** 0.06
31954 H 108.01561464959272 56.32927111872862 37.61411122405258 H 0.0 **** 0.06
31955 H 106.99290940983553 55.303369595596614 38.64956114018523 H 0.0 **** 0.06
31956 C 30.858980883469414 6.4602693311172175 108.43107638136394 C 0.0 **** -0.24
31957 H 31.64247823025729 6.016089620442784 109.04590032434612 H 0.0 **** 0.06
31958 H 31.216987844565757 6.567749954710536 107.40697527168845 H 0.0 **** 0.06
31959 H 30.595849133944235 7.440044813051813 108.8301375743591 H 0.0 **** 0.06
31960 H 29.979776730808112 5.815457258314694 108.44280767910257 H 0.0 **** 0.06
31961 C 117.75953750087575 93.76944984863997 121.51240711705903 C 0.0 **** -0.24
31962 H 116.81992655545926 94.3192710637928 121.45881580715968 H 0.0 **** 0.06
31963 H 118.59221310640581 94.45992995210798 121.37776797193669 H 0.0 **** 0.06
31964 H 117.78272364864469 93.01278416406163 120.72784379758136 H 0.0 **** 0.06
31965 H 117.8423293137401 93.28552775001836 122.485238556837 H 0.0 **** 0.06
31966 C 79.2790377519679 105.52014965968331 60.925438103638264 C 0.0 **** -0.24
31967 H 79.83242630546044 104.8898641107879 60.22845357674718 H 0.0 **** 0.06
31968 H 79.76673510689417 105.50027852929821 61.89989977118949 H 0.0 **** 0.06
31969 H 78.25929238665185 105.1462143372529 61.02078972927729 H 0.0 **** 0.06
31970 H 79.25707331362389 106.54276857853412 60.55007136914018 H 0.0 **** 0.06
31971 C 118.1726857889188 108.06089317905003 7.422633728956196 C 0.0 **** -0.24
31972 H 117.24676726706174 107.75171598876199 6.936542640671792 H 0.0 **** 0.06
31973 H 118.17801521041171 107.70592683625688 8.453168841389793 H 0.0 **** 0.06
31974 H 118.24297768128478 109.14795115473945 7.411141896695746 H 0.0 **** 0.06
31975 H 119.02243300415381 107.63552233864536 6.888049324217299 H 0.0 **** 0.06
31976 C 14.205875838088048 98.91683457765734 41.75774689560464 C 0.0 **** -0.24
31977 H 14.11157705462577 98.16585484793455 42.5425413597736 H 0.0 **** 0.06
31978 H 14.756863750703047 98.4962692266742 40.91659338450133 H 0.0 **** 0.06
31979 H 14.741654786023815 99.78253292393089 42.14701597595101 H 0.0 **** 0.06
31980 H 13.212805749820859 99.22206482352632 41.42690030657128 H 0.0 **** 0.06
31981 C 88.94913648837456 35.44782128388832 76.92497673116014 C 0.0 **** -0.24
31982 H 89.76960429456557 35.53942398834303 76.21377028288629 H 0.0 **** 0.06
31983 H 88.00104745691505 35.590601923709215 76.40599885689659 H 0.0 **** 0.06
31984 H 89.0559107003765 36.20459538321498 77.70242665462837 H 0.0 **** 0.06
31985 H 88.96998350164102 34.45666384028593 77.37771113022922 H 0.0 **** 0.06
31986 C 78.51115382652148 69.16389744663348 58.599225410415045 C 0.0 **** -0.24
31987 H 77.61806381773482 69.54617076326639 58.10533832566159 H 0.0 **** 0.06
31988 H 78.61892320972305 69.64221238548845 59.574013514606634 H 0.0 **** 0.06
31989 H 79.3858381801241 69.3833713171413 57.98781673126365 H 0.0 **** 0.06
31990 H 78.4199387891552 68.08608548599253 58.73131737497869 H 0.0 **** 0.06
31991 C 12.064403860985863 8.208046812938079 52.06870130342594 C 0.0 **** -0.24
31992 H 11.808103808006251 7.546625818910854 52.896825526110696 H 0.0 **** 0.06
31993 H 11.747098437974955 7.75365107563681 51.12922591550465 H 0.0 **** 0.06
31994 H 13.142983349033841 8.364828160068257 52.049992073771186 H 0.0 **** 0.06
31995 H 11.559031277169197 9.165407899710942 52.1989567256798 H 0.0 **** 0.06
31996 C 91.70058998596417 22.606320462418637 94.38596208157819 C 0.0 **** -0.24
31997 H 91.08657888891304 22.331653807748978 93.52891793572672 H 0.0 **** 0.06
31998 H 91.87408169821197 21.72599071403971 95.00539272855121 H 0.0 **** 0.06
31999 H 91.18480730978513 23.366936613798202 94.97273160438891 H 0.0 **** 0.06
32000 H 92.65479980008394 23.0010537110046 94.03892700017317 H 0.0 **** 0.06
32001 C 86.99979589136461 47.43522972881027 50.58756710019199 C 0.0 **** -0.24
32002 H 87.28465507929926 48.46433846886492 50.8041485363035 H 0.0 **** 0.06
32003 H 87.89646549645283 46.832801821612094 50.44252794062754 H 0.0 **** 0.06
32004 H 86.39361496009647 47.40943816102592 49.68140228798586 H 0.0 **** 0.06
32005 H 86.42302780013284 47.034274185077834 51.421200331873564 H 0.0 **** 0.06
32006 C 112.39545373981811 77.19655181852676 100.60704023350036 C 0.0 **** -0.24
32007 H 113.20321697910194 76.46615948487909 100.58194774819603 H 0.0 **** 0.06
32008 H 111.74877259033796 77.05217136766413 99.74132727435696 H 0.0 **** 0.06
32009 H 112.81393427001917 78.20255791321898 100.58472681928558 H 0.0 **** 0.06
32010 H 111.81488938150665 77.0636258612667 101.52052198179277 H 0.0 **** 0.06
32011 C 91.28529160397389 107.39744830847755 114.71364874915173 C 0.0 **** -0.24
32012 H 92.29884230919328 107.29070878828585 114.32958148260445 H 0.0 **** 0.06
32013 H 90.88433961065411 106.41370125619488 114.95931805585025 H 0.0 **** 0.06
32014 H 90.65718004537712 107.86697972820534 113.9554730833301 H 0.0 **** 0.06
32015 H 91.2999855690343 108.01761400653328 115.60891609723143 H 0.0 **** 0.06
32016 C 115.26962417623747 19.081916714981404 113.05413142453715 C 0.0 **** -0.24
32017 H 115.12956068846529 18.82974510243693 112.0023905359451 H 0.0 **** 0.06
32018 H 115.93620791702051 18.35418981727078 113.51697460566132 H 0.0 **** 0.06
32019 H 114.30579910939974 19.067296799760314 113.56217333413443 H 0.0 **** 0.06
32020 H 115.70680523837893 20.07795023604055 113.13334726838144 H 0.0 **** 0.06
32021 C 0.2681073980338198 3.4797924342692994 82.82951652372932 C 0.0 **** -0.24
32022 H 0.09490367108813302 2.906217108110255 81.91909907598384 H 0.0 **** 0.06
32023 H 0.05551524769417426 2.856289081988905 83.69809714296395 H 0.0 **** 0.06
32024 H -0.3861692462079276 4.351726398016098 82.83902354301091 H 0.0 **** 0.06
32025 H 1.3078410526083957 3.80587724937989 82.86180843764001 H 0.0 **** 0.06
32026 C 61.43859557587328 0.651145523983871 56.10129965794263 C 0.0 **** -0.24
32027 H 62.271851586318604 0.17398221386838486 55.58523596237271 H 0.0 **** 0.06
32028 H 60.50777468593466 0.4092496066779461 55.58673085270729 H 0.0 **** 0.06
32029 H 61.58343502056354 1.731297136312719 56.10356614965929 H 0.0 **** 0.06
32030 H 61.39195883190479 0.28793685624066256 57.12763711286607 H 0.0 **** 0.06
32031 C 107.80407443085926 43.7125833560481 117.14488585130553 C 0.0 **** -0.24
32032 H 107.77032932677417 44.64137469771822 117.71349290828977 H 0.0 **** 0.06
32033 H 107.23881604571449 42.943204849222724 117.67126577542834 H 0.0 **** 0.06
32034 H 108.84032259021393 43.39142850101646 117.03502461371394 H 0.0 **** 0.06
32035 H 107.36812436055976 43.873233098662126 116.15939801942565 H 0.0 **** 0.06
32036 C 16.502340983458367 45.190141733942596 121.98319055589491 C 0.0 **** -0.24
32037 H 15.650324795218722 45.17319931383139 122.660535613198 H 0.0 **** 0.06
32038 H 17.16349198567542 44.35270611056529 122.20867696944327 H 0.0 **** 0.06
32039 H 17.04685799579019 46.12638443203559 122.10801840574784 H 0.0 **** 0.06
32040 H 16.151094821141783 45.10968368193056 120.95442004174978 H 0.0 **** 0.06
32041 C 88.39977570344797 50.35171209139776 101.96009915021702 C 0.0 **** -0.24
32042 H 88.94169480533401 49.67752609929522 102.62409396892645 H 0.0 **** 0.06
32043 H 88.78463903759535 51.365250739479734 102.08026090598537 H 0.0 **** 0.06
32044 H 87.3393600529393 50.333781297197504 102.21143210982854 H 0.0 **** 0.06
32045 H 88.53475965212039 50.03113133784126 100.9276867449905 H 0.0 **** 0.06
32046 C 1.5742899420711467 61.867731103393645 18.363278469916253 C 0.0 **** -0.24
32047 H 2.1580237732648726 61.62786908343775 19.25204624585018 H 0.0 **** 0.06
32048 H 0.526243157916241 61.9854773422425 18.63800173132455 H 0.0 **** 0.06
32049 H 1.672134553916635 61.06125532154973 17.636452918159705 H 0.0 **** 0.06
32050 H 1.9431589789021046 62.79616459247912 17.92615254246607 H 0.0 **** 0.06
32051 C 91.1962089307188 21.667307964725694 62.729000383485136 C 0.0 **** -0.24
32052 H 90.45275273401003 22.446934160795536 62.88853373360332 H 0.0 **** 0.06
32053 H 91.05680739436045 21.22770380121014 61.74123141494372 H 0.0 **** 0.06
32054 H 91.08352569183833 20.89516142586129 63.490524762382044 H 0.0 **** 0.06
32055 H 92.1954730701413 22.09953607678041 62.796069490414375 H 0.0 **** 0.06
32056 C 113.69578564018943 28.554049761782643 48.423057230730734 C 0.0 **** -0.24
32057 H 113.86259096948089 29.101597943799646 47.4962050198109 H 0.0 **** 0.06
32058 H 114.63723510072731 28.462321019614244 48.96599917931849 H 0.0 **** 0.06
32059 H 113.31085693524156 27.56022545882147 48.19375765683117 H 0.0 **** 0.06
32060 H 112.97213221699505 29.08969742337601 49.037795757881725 H 0.0 **** 0.06
32061 C 76.56536096064187 42.32873301990317 6.8492594972649385 C 0.0 **** -0.24
32062 H 75.70601773970631 41.7786992095713 7.230896870544996 H 0.0 **** 0.06
32063 H 76.49990903341566 42.39668149742951 5.763538466865924 H 0.0 **** 0.06
32064 H 77.48226116131843 41.80864962855168 7.126702141358493 H 0.0 **** 0.06
32065 H 76.57376304290307 43.33197621091736 7.27666761303189 H 0.0 **** 0.06
32066 C 103.00599637428684 23.839198767447208 8.810155056088632 C 0.0 **** -0.24
32067 H 102.36846319196837 22.97802322749076 9.009494574402737 H 0.0 **** 0.06
32068 H 103.4377914157223 23.747672973203862 7.812931276890794 H 0.0 **** 0.06
32069 H 103.80531888812237 23.877966169122388 9.550535879259826 H 0.0 **** 0.06
32070 H 102.41319392889005 24.751955406975576 8.867606707484526 H 0.0 **** 0.06
32071 C 21.173052866279647 17.11820494097987 80.39093123318318 C 0.0 **** -0.24
32072 H 21.99023480314918 17.711402614755702 79.98131031673176 H 0.0 **** 0.06
32073 H 21.087050093049896 17.308057781995323 81.46069687864974 H 0.0 **** 0.06
32074 H 21.374460510595753 16.05964377106239 80.22480365094722 H 0.0 **** 0.06
32075 H 20.240930520026268 17.39250179918585 79.89635633763578 H 0.0 **** 0.06
32076 C 81.89255024182927 9.230194365563165 26.309150269680146 C 0.0 **** -0.24
32077 H 81.32566373960648 8.745116468567716 25.514279665374517 H 0.0 **** 0.06
32078 H 82.9226074932759 8.875272424341262 26.28837611582057 H 0.0 **** 0.06
32079 H 81.44416635399119 8.990918315327093 27.272960386628966 H 0.0 **** 0.06
32080 H 81.87720963590877 10.31019886581177 26.159206508666102 H 0.0 **** 0.06
32081 C 94.1939045395603 107.8967651805269 91.94826704691468 C 0.0 **** -0.24
32082 H 94.19103136566645 108.85935019802503 92.45926404833835 H 0.0 **** 0.06
32083 H 93.19157957569257 107.678946420242 91.57858228851342 H 0.0 **** 0.06
32084 H 94.5025493463184 107.11693095868574 92.64467720970714 H 0.0 **** 0.06
32085 H 94.89043912613116 107.93266927637563 91.11109290097465 H 0.0 **** 0.06
32086 C 102.07778332582828 18.06938859437671 63.365916750226575 C 0.0 **** -0.24
32087 H 101.4067681901546 17.246310477347897 63.11939240693897 H 0.0 **** 0.06
32088 H 101.80362411993241 18.94797635237642 62.78244748985247 H 0.0 **** 0.06
32089 H 103.10347752746813 17.782286458165075 63.13286110116235 H 0.0 **** 0.06
32090 H 101.99676710525463 18.298243923215757 64.4284541517622 H 0.0 **** 0.06
32091 C 20.60564872417598 37.11923105320202 98.41147676922498 C 0.0 **** -0.24
32092 H 20.742553657063468 36.88237829204973 99.46660232557329 H 0.0 **** 0.06
32093 H 19.66364277901937 37.650938694880594 98.27827430269733 H 0.0 **** 0.06
32094 H 20.587418854868588 36.196624151050564 97.8312213838066 H 0.0 **** 0.06
32095 H 21.429130184647875 37.74698592971686 98.07079768684818 H 0.0 **** 0.06
32096 C 12.276079957288573 44.606946945559564 113.56544229376166 C 0.0 **** -0.24
32097 H 12.169046348661197 45.090189068635574 114.53631146948908 H 0.0 **** 0.06
32098 H 13.315624017876758 44.314032980158466 113.41914919701138 H 0.0 **** 0.06
32099 H 11.978887278762272 45.30187243713426 112.7797310051256 H 0.0 **** 0.06
32100 H 11.640008697938754 43.72299260072032 113.5274401934069 H 0.0 **** 0.06
32101 C 104.57627833143661 120.12717530227386 19.060682932202354 C 0.0 **** -0.24
32102 H 103.53996017375047 120.45894575395167 19.134900533296275 H 0.0 **** 0.06
32103 H 105.23160546817846 120.88577709112937 19.49017317738145 H 0.0 **** 0.06
32104 H 104.83432512149031 119.97499346486845 18.012818125550297 H 0.0 **** 0.06
32105 H 104.6975309770811 119.19024526753688 19.60409807778882 H 0.0 **** 0.06
32106 C 33.46356096662478 22.88209844060235 111.39003124919958 C 0.0 **** -0.24
32107 H 33.315817351450335 22.079152744121657 112.1119994924797 H 0.0 **** 0.06
32108 H 33.00403664665211 23.796472670230855 111.76442310039535 H 0.0 **** 0.06
32109 H 33.004124150176125 22.60556252913525 110.44098233655524 H 0.0 **** 0.06
32110 H 34.53126218912911 23.046202758945846 111.24268800899125 H 0.0 **** 0.06
32111 C 87.61953789317522 80.87484741563455 75.06192134471502 C 0.0 **** -0.24
32112 H 86.71528218414613 80.6807387071228 75.63888889943493 H 0.0 **** 0.06
32113 H 87.37814209226653 80.87988645493698 73.99949170179417 H 0.0 **** 0.06
32114 H 88.35319595143136 80.09549386285488 75.26465749606243 H 0.0 **** 0.06
32115 H 88.03006230133337 81.84382682978458 75.34720326716484 H 0.0 **** 0.06
32116 C 46.24587177272708 78.62953432341396 114.93981772096052 C 0.0 **** -0.24
32117 H 46.60937798529579 77.80686529937418 114.32314998179237 H 0.0 **** 0.06
32118 H 46.5331137063143 79.57815962978248 114.48491081003363 H 0.0 **** 0.06
32119 H 46.68243816721497 78.55692676750948 115.93569373177527 H 0.0 **** 0.06
32120 H 45.159942041922456 78.57485703031466 115.01399401130777 H 0.0 **** 0.06
32121 C 89.96357967382698 25.875014608921198 28.338817999251376 C 0.0 **** -0.24
32122 H 90.38443755816616 26.193818174528992 29.293288087674625 H 0.0 **** 0.06
32123 H 89.44712283130275 26.714175845628468 27.872424499460692 H 0.0 **** 0.06
32124 H 89.25770371215344 25.061558903522993 28.506594851625607 H 0.0 **** 0.06
32125 H 90.76490677390086 25.531466336869627 27.68521295742289 H 0.0 **** 0.06
32126 C 30.317469257309185 99.6567686230257 80.54332078034619 C 0.0 **** -0.24
32127 H 29.936413838165286 99.56043852758344 79.52680103520157 H 0.0 **** 0.06
32128 H 29.522715041699747 99.42544699355594 81.25214384728508 H 0.0 **** 0.06
32129 H 30.664091286121995 100.6777467075076 80.70589106569889 H 0.0 **** 0.06
32130 H 31.146562727136136 98.96432294645567 80.68798285487296 H 0.0 **** 0.06
32131 C 91.80591070112459 43.88466211000724 53.033465817109004 C 0.0 **** -0.24
32132 H 90.97884560396983 44.3850333905948 53.53651551683015 H 0.0 **** 0.06
32133 H 92.63427744451121 44.58270767405696 52.9131659893994 H 0.0 **** 0.06
32134 H 91.47737164385168 43.53662258034683 52.05323023085927 H 0.0 **** 0.06
32135 H 92.13150895244945 43.03247114063072 53.63079613791331 H 0.0 **** 0.06
32136 C 27.980193339457713 45.172404633266325 57.8112892117511 C 0.0 **** -0.24
32137 H 27.718584949425434 45.224176182653764 56.75484383426482 H 0.0 **** 0.06
32138 H 27.595448611608617 46.05467824970117 58.32447727044598 H 0.0 **** 0.06
32139 H 29.064610319874106 45.135404753695425 57.914802241712835 H 0.0 **** 0.06
32140 H 27.542478827730093 44.2761948413993 58.25060928505775 H 0.0 **** 0.06
32141 C 104.69978754163236 0.9286722297113243 17.75221843631539 C 0.0 **** -0.24
32142 H 104.64972152560375 0.626413330650351 16.707184962227757 H 0.0 **** 0.06
32143 H 105.69943797863618 1.3040949406222637 17.97466171294826 H 0.0 **** 0.06
32144 H 104.48364415815374 0.07074216519725951 18.38954583912789 H 0.0 **** 0.06
32145 H 103.96691971267478 1.713503685288103 17.939641661207474 H 0.0 **** 0.06
32146 C 39.47743447131961 50.99368072505632 64.05792730985212 C 0.0 **** -0.24
32147 H 39.07272009172388 51.21318421766006 63.07042563240457 H 0.0 **** 0.06
32148 H 39.15675508464224 49.998179054032335 64.36865132149424 H 0.0 **** 0.06
32149 H 39.11339802370995 51.732072800735295 64.77211896516275 H 0.0 **** 0.06
32150 H 40.566733951920156 51.02958827083921 64.02082633800882 H 0.0 **** 0.06
32151 C 119.29666422999708 89.90916514663917 4.478006979071036 C 0.0 **** -0.24
32152 H 119.4861778302667 88.879358800407 4.1747057579903295 H 0.0 **** 0.06
32153 H 120.1948268163742 90.32506760080847 4.933999542836066 H 0.0 **** 0.06
32154 H 118.47911882340496 89.93034392464932 5.199438308349201 H 0.0 **** 0.06
32155 H 119.02419608640572 90.4996140647199 3.6032874186072785 H 0.0 **** 0.06
32156 C 50.87487390999988 96.67188126127252 45.02209889867751 C 0.0 **** -0.24
32157 H 50.62690135197412 96.1173037565388 44.1170858985372 H 0.0 **** 0.06
32158 H 51.880472816686385 96.40440639084636 45.34757116350693 H 0.0 **** 0.06
32159 H 50.16035198264343 96.42469005405087 45.80732692830682 H 0.0 **** 0.06
32160 H 50.83173211146401 97.741606529459 44.81508243429724 H 0.0 **** 0.06
32161 C 51.16645888415124 40.789807140990376 95.14136046739407 C 0.0 **** -0.24
32162 H 51.9650073004691 41.453516253333945 95.47445629141646 H 0.0 **** 0.06
32163 H 51.60000533112293 39.881327304055674 94.7232659885388 H 0.0 **** 0.06
32164 H 50.57102872160536 41.292326412495385 94.37939104031872 H 0.0 **** 0.06
32165 H 50.53071588917709 40.53311041894585 95.98811822991641 H 0.0 **** 0.06
32166 C 20.035009221422683 18.888699711522843 17.955985853498326 C 0.0 **** -0.24
32167 H 20.97300549923316 18.755720196528618 17.41553266917097 H 0.0 **** 0.06
32168 H 20.204263086739115 18.72838465634564 19.020600019159243 H 0.0 **** 0.06
32169 H 19.301459772161014 18.170108798936415 17.591727178843737 H 0.0 **** 0.06
32170 H 19.664145002236236 19.900603689815075 17.79510652569521 H 0.0 **** 0.06
32171 C 20.50610214881135 21.733266118245496 120.62985538198453 C 0.0 **** -0.24
32172 H 20.29148999815095 22.469332154111754 121.4038996204972 H 0.0 **** 0.06
32173 H 21.268477640141228 21.04050503268246 120.98825725175747 H 0.0 **** 0.06
32174 H 20.86765433101627 22.240038430974778 119.7358968294444 H 0.0 **** 0.06
32175 H 19.596591481438537 21.181183668418186 120.39233809571417 H 0.0 **** 0.06
32176 C 1.5335766197483736 68.19463724051462 59.40027286550344 C 0.0 **** -0.24
32177 H 2.390902110992414 68.26131614236033 58.73146947136186 H 0.0 **** 0.06
32178 H 1.6680652551424942 67.35326486641623 60.08056214392977 H 0.0 **** 0.06
32179 H 0.6256178173641729 68.04680547523895 58.81450517958598 H 0.0 **** 0.06
32180 H 1.4497212954945837 69.1171624780431 59.97455466713609 H 0.0 **** 0.06
32181 C 115.66678878662522 85.4801718280907 10.790713639411734 C 0.0 **** -0.24
32182 H 116.43747282839354 86.17557901810954 10.459696990117067 H 0.0 **** 0.06
32183 H 115.50251159012376 84.72582538791852 10.021200426963361 H 0.0 **** 0.06
32184 H 114.7392567308001 86.02425305920809 10.970048662974477 H 0.0 **** 0.06
32185 H 115.98656781079585 84.99541511318648 11.712928045765608 H 0.0 **** 0.06
32186 C 36.95303024231947 13.940990139969301 83.34582292574052 C 0.0 **** -0.24
32187 H 35.99918728395812 14.45953353836859 83.4371379018553 H 0.0 **** 0.06
32188 H 37.623044837331776 14.269382345230184 84.14075321387489 H 0.0 **** 0.06
32189 H 37.39938309816921 14.16889625180778 82.37710204524754 H 0.0 **** 0.06
32190 H 36.791727282162924 12.866016673411792 83.42643017941137 H 0.0 **** 0.06
32191 C 41.91490909904098 6.911984901155506 22.951313222531866 C 0.0 **** -0.24
32192 H 41.89682728303616 6.33708692511226 23.876727964942106 H 0.0 **** 0.06
32193 H 42.65922694028448 7.705017947014994 23.02982897028359 H 0.0 **** 0.06
32194 H 40.93236934521562 7.351533887416792 22.778340760918667 H 0.0 **** 0.06
32195 H 42.1699380330204 6.254564642940295 22.119802545159672 H 0.0 **** 0.06
32196 C 70.09821460086309 29.05210546194968 44.254030536709195 C 0.0 **** -0.24
32197 H 70.83054114648581 29.71226893531997 43.78942625235644 H 0.0 **** 0.06
32198 H 70.07262468312456 28.10307128650328 43.71600305702762 H 0.0 **** 0.06
32199 H 69.11390478387088 29.51850269243164 44.216295662178304 H 0.0 **** 0.06
32200 H 70.37707597519895 28.87414159643373 45.292360106535746 H 0.0 **** 0.06
32201 C 37.06880283461189 122.02287588782391 17.545426604556226 C 0.0 **** -0.24
32202 H 37.58470468533166 122.97947178070898 17.46156531310372 H 0.0 **** 0.06
32203 H 37.540428560197505 121.2963629046294 16.883301072281526 H 0.0 **** 0.06
32204 H 36.0229065852246 122.14844683768943 17.26331640403467 H 0.0 **** 0.06
32205 H 37.12717531802409 121.66852507651429 18.575340859957237 H 0.0 **** 0.06
32206 C 31.023279035574873 38.535135058745006 116.13953106115787 C 0.0 **** -0.24
32207 H 30.129693032281835 38.75338789693002 116.72421634064234 H 0.0 **** 0.06
32208 H 31.296634127485632 39.41199935726178 115.55197581642109 H 0.0 **** 0.06
32209 H 30.82434981582852 37.69670323373612 115.47092471102482 H 0.0 **** 0.06
32210 H 31.842439166703386 38.278449747051965 116.81100737654317 H 0.0 **** 0.06
32211 C 97.05850507962685 68.54977597063902 0.2903803093500592 C 0.0 **** -0.24
32212 H 96.85399822137384 67.70502464170266 0.9479403828071558 H 0.0 **** 0.06
32213 H 96.2130363690672 69.23793825575703 0.3105668473528844 H 0.0 **** 0.06
32214 H 97.20917955089553 68.18876655546472 -0.727052509278197 H 0.0 **** 0.06
32215 H 97.95672253157502 69.06520973044408 0.6296921856148217 H 0.0 **** 0.06
32216 C 64.7327575890582 95.44719518668035 19.816550942468837 C 0.0 **** -0.24
32217 H 65.2236949315797 95.35036329122693 18.8490995784355 H 0.0 **** 0.06
32218 H 64.98948627308752 96.41025785874717 20.258998521745553 H 0.0 **** 0.06
32219 H 65.06561134920236 94.64431797237097 20.474680645851365 H 0.0 **** 0.06
32220 H 63.652943092917695 95.38366246066215 19.684110969365435 H 0.0 **** 0.06
32221 C 41.18650717627028 115.73941825209086 38.53454851188633 C 0.0 **** -0.24
32222 H 40.82167553495833 114.72037239308187 38.40588406326617 H 0.0 **** 0.06
32223 H 40.33980392089073 116.4252696596235 38.58367755457601 H 0.0 **** 0.06
32224 H 41.8219615074145 116.00677256972304 37.69015725143993 H 0.0 **** 0.06
32225 H 41.761648387667435 115.80552085048718 39.457451050602685 H 0.0 **** 0.06
32226 C 82.14741387309084 66.92555377621719 40.03010749629023 C 0.0 **** -0.24
32227 H 82.16159456586792 66.25228932735607 39.17278781252949 H 0.0 **** 0.06
32228 H 82.22965421240775 66.34461553640762 40.94940205570255 H 0.0 **** 0.06
32229 H 81.21181670762297 67.48502953430139 40.035935460227705 H 0.0 **** 0.06
32230 H 82.98548955963457 67.61854071061217 39.96143189766241 H 0.0 **** 0.06
32231 C 118.65988996091319 2.5487883364224047 78.07247184981367 C 0.0 **** -0.24
32232 H 118.77058945375342 3.6062739440339726 78.31202545702959 H 0.0 **** 0.06
32233 H 118.32155809457839 2.009070816757358 78.95684431875682 H 0.0 **** 0.06
32234 H 119.619430320868 2.148402747749202 77.7461747867361 H 0.0 **** 0.06
32235 H 117.92646645300998 2.4327121040997497 77.27342961509868 H 0.0 **** 0.06
32236 C 76.51637482127637 88.79159213749472 4.142603214050666 C 0.0 **** -0.24
32237 H 77.05097361240342 87.88733908987479 3.84869202854793 H 0.0 **** 0.06
32238 H 75.44338683833038 88.59874459738788 4.12718313483839 H 0.0 **** 0.06
32239 H 76.75190027831968 89.59549816406252 3.446420842622331 H 0.0 **** 0.06
32240 H 76.81909430238883 89.08128850379427 5.1494369270411084 H 0.0 **** 0.06
32241 C 57.28012125838652 46.132772552165505 73.86957411279607 C 0.0 **** -0.24
32242 H 56.88169078526419 46.74289451727992 74.67944534160168 H 0.0 **** 0.06
32243 H 56.95196151197967 46.539857415472035 72.9131624725656 H 0.0 **** 0.06
32244 H 56.91651361505449 45.1097586360481 73.97305461688126 H 0.0 **** 0.06
32245 H 58.36857010564038 46.137682316149835 73.91300277101428 H 0.0 **** 0.06
32246 C 97.90602058375799 65.29142547476474 61.719139362584144 C 0.0 **** -0.24
32247 H 98.14993580060047 66.26868272864851 62.13405342197058 H 0.0 **** 0.06
32248 H 97.31179730775949 64.72864961525488 62.44015340343151 H 0.0 **** 0.06
32249 H 98.82587943615857 64.74843746392514 61.5037703779372 H 0.0 **** 0.06
32250 H 97.33619736942228 65.41919304692928 60.79919640925908 H 0.0 **** 0.06
32251 C 61.34122171973946 50.64158820322973 113.28179157448454 C 0.0 **** -0.24
32252 H 62.309432633050285 50.368514738384675 113.7023693710253 H 0.0 **** 0.06
32253 H 61.49110753939704 51.26119509536781 112.39834287747254 H 0.0 **** 0.06
32254 H 60.767414590101644 51.196583951577566 114.02365894861038 H 0.0 **** 0.06
32255 H 60.79914663957651 49.737409193632885 113.00504792426068 H 0.0 **** 0.06
32256 C 97.34562420780989 115.79901383009243 113.66552375743808 C 0.0 **** -0.24
32257 H 98.23884021995181 116.41011059297384 113.79639028386879 H 0.0 **** 0.06
32258 H 97.62251125470996 114.84192254175876 113.22364939824973 H 0.0 **** 0.06
32259 H 96.64601001090065 116.31454269702688 113.00841567517716 H 0.0 **** 0.06
32260 H 96.87691640918871 115.63011446185718 114.63483336423224 H 0.0 **** 0.06
32261 C 96.0353233672302 82.117571654936 56.52618905982362 C 0.0 **** -0.24
32262 H 95.95021664530651 81.6206796363681 55.560279000553464 H 0.0 **** 0.06
32263 H 95.88566077308889 81.3885796742278 57.323430555580245 H 0.0 **** 0.06
32264 H 95.27883217478814 82.89859881962303 56.60053794433773 H 0.0 **** 0.06
32265 H 97.02677131273674 82.5607526709631 56.6201129276227 H 0.0 **** 0.06
32266 C 70.37200831889174 111.7968027573835 77.06622127443092 C 0.0 **** -0.24
32267 H 69.39206815421312 111.32688305648472 76.97680129243824 H 0.0 **** 0.06
32268 H 70.65944144437412 112.22225643200704 76.10431871085535 H 0.0 **** 0.06
32269 H 71.10595906244424 111.05025306781278 77.3685653811232 H 0.0 **** 0.06
32270 H 70.32813230222177 112.58753866617215 77.81527651690675 H 0.0 **** 0.06
32271 C 4.5095644415395135 0.7396915878156651 98.7171873347524 C 0.0 **** -0.24
32272 H 4.759721639562073 0.4841157769193156 97.68746236300217 H 0.0 **** 0.06
32273 H 5.115757123440318 1.5878815886278215 99.03822999185451 H 0.0 **** 0.06
32274 H 4.709582357985468 -0.1158078453420277 99.36191956772629 H 0.0 **** 0.06
32275 H 3.4538905504782527 1.0030612357747852 98.77906760343814 H 0.0 **** 0.06
32276 C 56.907969545443684 122.13711804218403 4.849983264727001 C 0.0 **** -0.24
32277 H 56.88396932643327 121.10367159349839 5.196571767406397 H 0.0 **** 0.06
32278 H 57.67754370926213 122.24678861972822 4.086367484523294 H 0.0 **** 0.06
32279 H 57.133041680852564 122.7958750344707 5.68908452313832 H 0.0 **** 0.06
32280 H 55.93709410111186 122.4021710804239 4.43013335747888 H 0.0 **** 0.06
32281 C 45.43821814298613 14.672701440695732 99.00680993908261 C 0.0 **** -0.24
32282 H 44.706640522994995 14.427309284303504 99.77684956164086 H 0.0 **** 0.06
32283 H 44.98034748609984 15.331438368941036 98.2684595577594 H 0.0 **** 0.06
32284 H 45.773234714334144 13.757118523198784 98.5186060984401 H 0.0 **** 0.06
32285 H 46.2918126079611 15.174221628984299 99.46243928326442 H 0.0 **** 0.06
32286 C 89.94592395397694 66.88769403391854 113.57661805354718 C 0.0 **** -0.24
32287 H 90.75809195062709 67.57423187967373 113.34146712879269 H 0.0 **** 0.06
32288 H 90.357444678658 65.90476475645849 113.8088936072817 H 0.0 **** 0.06
32289 H 89.27755457821104 66.807694021576 112.71909981798805 H 0.0 **** 0.06
32290 H 89.3900802012671 67.26127463156129 114.4361035628846 H 0.0 **** 0.06
32291 C 39.857222323366756 97.38387990535716 84.63910652405332 C 0.0 **** -0.24
32292 H 40.33170600461663 98.36148929508059 84.71950679066339 H 0.0 **** 0.06
32293 H 40.60284007100759 96.60455157962431 84.80066374738425 H 0.0 **** 0.06
32294 H 39.42241996160014 97.27114488286426 83.64651507301804 H 0.0 **** 0.06
32295 H 39.072846845122555 97.29820363864602 85.39200551471686 H 0.0 **** 0.06
32296 C 110.94777769528429 109.13431847110257 87.3711125829737 C 0.0 **** -0.24
32297 H 111.26803568862209 108.10776980498497 87.1897294312015 H 0.0 **** 0.06
32298 H 110.36096819494784 109.17404853192883 88.2885281008019 H 0.0 **** 0.06
32299 H 110.33773204481199 109.47697129393092 86.53477919995566 H 0.0 **** 0.06
32300 H 111.82320741557012 109.77552265505014 87.47004733034225 H 0.0 **** 0.06
32301 C 95.82043744631952 51.95332435457419 40.63987226878649 C 0.0 **** -0.24
32302 H 95.02344584410696 51.94152994849418 41.382809925626105 H 0.0 **** 0.06
32303 H 95.48251255526705 52.48919465366197 39.752286228730085 H 0.0 **** 0.06
32304 H 96.08102601623938 50.93018800474425 40.37000247624076 H 0.0 **** 0.06
32305 H 96.69595247684231 52.45336833863962 41.055180139236015 H 0.0 **** 0.06
32306 C 50.10562256955524 65.3047887331706 1.1329107930026794 C 0.0 **** -0.24
32307 H 49.022787939617615 65.32119173897928 1.2548173562582292 H 0.0 **** 0.06
32308 H 50.359811221075574 64.76947302970984 0.21829265746771398 H 0.0 **** 0.06
32309 H 50.55855723011422 64.80157779143315 1.9875698537161952 H 0.0 **** 0.06
32310 H 50.479594412128165 66.32650272585235 1.0731557599514758 H 0.0 **** 0.06
32311 C 20.41009179047552 48.038291872074524 41.252792766025095 C 0.0 **** -0.24
32312 H 20.75141536380363 47.65710636490962 42.214815068978226 H 0.0 **** 0.06
32313 H 19.616573689021237 47.39714743163779 40.86862747555806 H 0.0 **** 0.06
32314 H 21.241469285536695 48.04835251570955 40.549034790790984 H 0.0 **** 0.06
32315 H 20.029132339472085 49.052227350039516 41.378955076315805 H 0.0 **** 0.06
32316 C 6.274147088348286 4.712630630869143 27.900455130328908 C 0.0 **** -0.24
32317 H 6.58630714954694 3.8270950511545294 27.347243653808448 H 0.0 **** 0.06
32318 H 5.846987069015938 5.440081680696693 27.20986375840465 H 0.0 **** 0.06
32319 H 7.137237565257976 5.150498388672219 28.40152375172991 H 0.0 **** 0.06
32320 H 5.526566837422365 4.432660720459708 28.642349814622122 H 0.0 **** 0.06
32321 C 44.735957128893574 37.033295179084604 95.8616117501322 C 0.0 **** -0.24
32322 H 45.1109227139911 37.98574985391187 96.23662381427278 H 0.0 **** 0.06
32323 H 44.480996758779554 36.38750297173735 96.70223580227884 H 0.0 **** 0.06
32324 H 45.504219007141955 36.553756136002306 95.25480029794579 H 0.0 **** 0.06
32325 H 43.848282643189464 37.206545851504984 95.25350047481089 H 0.0 **** 0.06
32326 C 79.40248998152106 43.65117863665739 115.67630993326834 C 0.0 **** -0.24
32327 H 78.76394592027543 43.221184665325495 116.4487747313022 H 0.0 **** 0.06
32328 H 79.84024546083128 44.5795267049821 116.04258320068375 H 0.0 **** 0.06
32329 H 78.80768120827372 43.85519095575302 114.78628937419039 H 0.0 **** 0.06
32330 H 80.19679060990643 42.9471929901315 115.42842721472412 H 0.0 **** 0.06
32331 C 64.24677164551468 3.4484565804144154 84.83709115180952 C 0.0 **** -0.24
32332 H 64.86026710543376 3.7068328110459845 83.97328142738976 H 0.0 **** 0.06
32333 H 64.53435899066648 2.4636491992316394 85.20509667240563 H 0.0 **** 0.06
32334 H 63.196407732277464 3.4356305750808644 84.54566657039274 H 0.0 **** 0.06
32335 H 64.39670217606039 4.188445729547595 85.6228907402664 H 0.0 **** 0.06
32336 C 111.51270371985663 59.577957401799665 62.292202789443984 C 0.0 **** -0.24
32337 H 112.09687532898985 60.28163656000439 62.88599682204083 H 0.0 **** 0.06
32338 H 110.46119403346603 59.65496205227018 62.57090309027681 H 0.0 **** 0.06
32339 H 111.86582906875606 58.56504655342192 62.479366080439654 H 0.0 **** 0.06
32340 H 111.62690152396834 59.813572720358735 61.23413265452489 H 0.0 **** 0.06
32341 C 101.26349509798041 19.33424022483291 56.47848202201783 C 0.0 **** -0.24
32342 H 101.39021353368724 19.381658097614434 55.39609151430528 H 0.0 **** 0.06
32343 H 101.17221968472921 18.292265191176398 56.787150169091205 H 0.0 **** 0.06
32344 H 100.36176864422524 19.87681310010055 56.761413419670134 H 0.0 **** 0.06
32345 H 102.12768795728167 19.78387624387733 56.96490071247416 H 0.0 **** 0.06
32346 C 53.522192364662544 81.32057857584081 21.632767837786957 C 0.0 **** -0.24
32347 H 52.867403840035365 81.44635630526886 22.494300778431864 H 0.0 **** 0.06
32348 H 52.94573995327292 80.9352938569971 20.791260573995203 H 0.0 **** 0.06
32349 H 54.317583334957106 80.6174413226569 21.88183889467217 H 0.0 **** 0.06
32350 H 53.9590200399183 82.28246772074093 21.364359597227462 H 0.0 **** 0.06
32351 C 0.20900763138520517 90.00935671146948 103.16917677788084 C 0.0 **** -0.24
32352 H 1.1095859779820643 90.51835479754675 102.8273249725203 H 0.0 **** 0.06
32353 H -0.589549517124297 90.15867922843844 102.44274964974295 H 0.0 **** 0.06
32354 H -0.0950523987360441 90.41705273327614 104.13335964070157 H 0.0 **** 0.06
32355 H 0.41184582968521966 88.94274127616 103.27332280125705 H 0.0 **** 0.06
32356 C 117.22431430870131 4.151308745959582 97.44055623092422 C 0.0 **** -0.24
32357 H 117.41576144073458 3.102377561818429 97.67063576650955 H 0.0 **** 0.06
32358 H 118.04221906679368 4.546093085084948 96.83806038371864 H 0.0 **** 0.06
32359 H 117.14936134726938 4.718324833935554 98.36896723508372 H 0.0 **** 0.06
32360 H 116.28919872577532 4.236518582999196 96.8859019886969 H 0.0 **** 0.06
32361 C 43.71548945486458 77.31345944589819 39.098102344590615 C 0.0 **** -0.24
32362 H 43.95082634013829 78.1470374884612 38.435937440910834 H 0.0 **** 0.06
32363 H 43.99405723149047 77.5717508225105 40.11961723497484 H 0.0 **** 0.06
32364 H 44.2701399730943 76.43103756873049 38.78179479608693 H 0.0 **** 0.06
32365 H 42.646101504567895 77.10571669979996 39.054427144660536 H 0.0 **** 0.06
32366 C 71.60527707010803 58.89660312944395 39.91357089630944 C 0.0 **** -0.24
32367 H 72.21482070789281 58.38024072347838 40.65494700349319 H 0.0 **** 0.06
32368 H 71.90120062135364 58.57796834554654 38.91406689146973 H 0.0 **** 0.06
32369 H 71.74952983919903 59.97282389388386 40.0104994965793 H 0.0 **** 0.06
32370 H 70.55437767074099 58.654758234408746 40.07524241245957 H 0.0 **** 0.06
32371 C 105.38399197273185 12.025947941221375 54.45077033194797 C 0.0 **** -0.24
32372 H 105.2124301202573 11.95469614265943 55.52478189427678 H 0.0 **** 0.06
32373 H 106.42311427394932 12.298709818484781 54.26678955542341 H 0.0 **** 0.06
32374 H 104.72805474182664 12.786235545226333 54.02785404665436 H 0.0 **** 0.06
32375 H 105.173067530086 11.063015274051878 53.98476203688265 H 0.0 **** 0.06
32376 C 79.39045042413198 0.2205929835631224 24.351041141974946 C 0.0 **** -0.24
32377 H 78.83802871398959 0.9683609185456987 23.781767468588683 H 0.0 **** 0.06
32378 H 80.18556723072618 0.7070842599131453 24.914989335809125 H 0.0 **** 0.06
32379 H 79.82379087628019 -0.5081561846951388 23.665701185212356 H 0.0 **** 0.06
32380 H 78.71272980075997 -0.2857283779025863 25.038465735073032 H 0.0 **** 0.06
32381 C 92.06684043128669 38.977644884838156 25.492040196589983 C 0.0 **** -0.24
32382 H 92.8878622799061 38.279696048352235 25.658913585552597 H 0.0 **** 0.06
32383 H 92.18727627529563 39.84185281190679 26.146305485982708 H 0.0 **** 0.06
32384 H 91.12020331719793 38.48362660854468 25.713425169919276 H 0.0 **** 0.06
32385 H 92.07295397418491 39.3034344050227 24.45255769832633 H 0.0 **** 0.06
32386 C 45.6792421927633 56.184558590384036 18.193322036808127 C 0.0 **** -0.24
32387 H 45.967506236926965 56.774070886569895 17.322712911394206 H 0.0 **** 0.06
32388 H 45.2431305044521 56.840662697962564 18.947405713577325 H 0.0 **** 0.06
32389 H 46.560301875724974 55.69202053458813 18.605523765259875 H 0.0 **** 0.06
32390 H 44.94751762884687 55.433423192896136 17.897758432791306 H 0.0 **** 0.06
32391 C 105.57210464233651 56.11722196736832 109.38934075692262 C 0.0 **** -0.24
32392 H 104.73379848136136 56.1177672744879 110.08569022925042 H 0.0 **** 0.06
32393 H 105.6020109562298 55.165607197841496 108.85740171389571 H 0.0 **** 0.06
32394 H 106.50253057709057 56.25442242367615 109.93997650071583 H 0.0 **** 0.06
32395 H 105.45014534359885 56.930836907341074 108.67332967693946 H 0.0 **** 0.06
32396 C 3.560410054504075 81.76809234256075 23.024380680597005 C 0.0 **** -0.24
32397 H 3.225996642658174 81.39730208494026 22.05547955917143 H 0.0 **** 0.06
32398 H 4.543682884660342 82.22702901626118 22.917859139644804 H 0.0 **** 0.06
32399 H 3.621106490540086 80.93864645311251 23.729487501803646 H 0.0 **** 0.06
32400 H 2.8517355747468116 82.50895528265784 23.39487727906203 H 0.0 **** 0.06
32401 C 61.18581530328468 103.42031363868176 91.86950443547903 C 0.0 **** -0.24
32402 H 61.02694389505569 104.09574497517784 92.71025917161916 H 0.0 **** 0.06
32403 H 61.04141640411567 103.96416509635708 90.9354494404881 H 0.0 **** 0.06
32404 H 60.47387402868885 102.59693811614122 91.92437231044627 H 0.0 **** 0.06
32405 H 62.2011327920677 103.02504883459267 91.90717782339922 H 0.0 **** 0.06
32406 C 52.53879307068587 1.7935171677862343 50.10020735601125 C 0.0 **** -0.24
32407 H 53.361867160893155 1.081689387127824 50.030871727303435 H 0.0 **** 0.06
32408 H 52.93777799895693 2.805630389570821 50.16333382837303 H 0.0 **** 0.06
32409 H 51.947187648628045 1.5787607266080759 50.98988752292394 H 0.0 **** 0.06
32410 H 51.90766201179122 1.7055247652296757 49.215522616691544 H 0.0 **** 0.06
32411 C 101.64867398725022 73.72339846054442 7.968311960595457 C 0.0 **** -0.24
32412 H 102.5246415970339 74.24094724506224 8.36041803942777 H 0.0 **** 0.06
32413 H 101.88763130889208 72.67156632181431 7.812120842798834 H 0.0 **** 0.06
32414 H 101.35425293495348 74.17438787706524 7.021061266271204 H 0.0 **** 0.06
32415 H 100.82883085446258 73.80749957318494 8.681625612281351 H 0.0 **** 0.06
32416 C 100.99937121264927 87.89301424903624 74.2700408338601 C 0.0 **** -0.24
32417 H 100.33257664485811 88.67497339211215 74.63191646484671 H 0.0 **** 0.06
32418 H 100.47598538416295 86.93667917866057 74.2788535411344 H 0.0 **** 0.06
32419 H 101.87516116095634 87.83340138309708 74.91651080460994 H 0.0 **** 0.06
32420 H 101.3147341300546 88.1267698938463 73.25288170585682 H 0.0 **** 0.06
32421 C 1.5358715363927242 59.58786024315299 9.455262687512683 C 0.0 **** -0.24
32422 H 1.8501942480707818 59.93114400868461 10.4408653537701 H 0.0 **** 0.06
32423 H 1.796261761786491 60.33825921254055 8.70888849225122 H 0.0 **** 0.06
32424 H 0.45697295736185595 59.431344490329536 9.452848576392316 H 0.0 **** 0.06
32425 H 2.039979300284857 58.65071141404718 9.220178579775656 H 0.0 **** 0.06
32426 C 31.76710999237156 102.20932833188817 85.0866240641941 C 0.0 **** -0.24
32427 H 31.785392901828686 101.19080055667308 84.69633296203068 H 0.0 **** 0.06
32428 H 31.53932716977141 102.90317186472464 84.27714503897704 H 0.0 **** 0.06
32429 H 32.740432839157734 102.45271670268886 85.51284803688065 H 0.0 **** 0.06
32430 H 31.002285962214103 102.28769451275173 85.85952580076906 H 0.0 **** 0.06
32431 C 23.587764427356376 24.774074082065226 89.35558180554119 C 0.0 **** -0.24
32432 H 23.909666699306115 23.75934491121609 89.12050779269228 H 0.0 **** 0.06
32433 H 22.536230750903314 24.763440167672456 89.64179144334602 H 0.0 **** 0.06
32434 H 23.71980871282193 25.40874972689818 88.47931514459847 H 0.0 **** 0.06
32435 H 24.18655573746497 25.16307382633562 90.179875056399 H 0.0 **** 0.06
32436 C 55.76452323591071 100.14511925997124 62.751100049660614 C 0.0 **** -0.24
32437 H 55.54276790763894 100.94571057762045 62.04510269077658 H 0.0 **** 0.06
32438 H 56.292352400769666 100.55599828798464 63.612379904785094 H 0.0 **** 0.06
32439 H 56.38857732453311 99.39482978069225 62.26522214266148 H 0.0 **** 0.06
32440 H 54.83334659951216 99.68487978400739 63.08157671596924 H 0.0 **** 0.06
32441 C 6.570552165504395 15.43058913760018 11.802785055289235 C 0.0 **** -0.24
32442 H 7.1547004322759875 16.327393072810878 12.00645039374686 H 0.0 **** 0.06
32443 H 5.785826682285759 15.664799483993392 11.083297341449281 H 0.0 **** 0.06
32444 H 6.119491612289977 15.074204648195632 12.729537271785688 H 0.0 **** 0.06
32445 H 7.221624301858981 14.657836123537578 11.394336810317242 H 0.0 **** 0.06
32446 C 27.780877230934415 117.33109121510057 54.68905340164364 C 0.0 **** -0.24
32447 H 27.468329169817352 117.67881361539978 53.70439916126447 H 0.0 **** 0.06
32448 H 27.01408894431806 117.58329715539108 55.42266099984386 H 0.0 **** 0.06
32449 H 28.719536134065564 117.81289235155594 54.96282568117112 H 0.0 **** 0.06
32450 H 27.919919731767173 116.25028677077452 54.66511468900787 H 0.0 **** 0.06
32451 C 67.40170739583647 38.72553617196141 76.62912413319052 C 0.0 **** -0.24
32452 H 67.11663884480595 39.07908079371853 77.62064181888525 H 0.0 **** 0.06
32453 H 66.51885753263937 38.34909453619338 76.11161568876503 H 0.0 **** 0.06
32454 H 68.13540081489612 37.92494761103265 76.72632024962684 H 0.0 **** 0.06
32455 H 67.83386056613273 39.54822205433973 76.06017012844111 H 0.0 **** 0.06
32456 C 19.715106083967154 21.006031117143408 86.61670698101531 C 0.0 **** -0.24
32457 H 19.59252237686375 19.922551588236786 86.61276710635045 H 0.0 **** 0.06
32458 H 19.97983744728763 21.344802211874423 85.61533464689956 H 0.0 **** 0.06
32459 H 20.506627351246426 21.278818038429705 87.31453324575958 H 0.0 **** 0.06
32460 H 18.781703806976463 21.4762565314534 86.92442165248244 H 0.0 **** 0.06
32461 C 65.03157853409044 49.96770072025575 50.4830536472781 C 0.0 **** -0.24
32462 H 65.0671847704304 49.326160472439156 51.362604295945005 H 0.0 **** 0.06
32463 H 65.47711077053847 49.446766615252585 49.635067290697236 H 0.0 **** 0.06
32464 H 65.58717639855217 50.88442311477962 50.67915097326602 H 0.0 **** 0.06
32465 H 63.99429507081964 50.21336553329482 50.25409081048872 H 0.0 **** 0.06
32466 C 112.0858322449987 82.49603021021943 11.117485741306275 C 0.0 **** -0.24
32467 H 113.14139782408921 82.5471616289372 10.851924121640579 H 0.0 **** 0.06
32468 H 111.50543856315315 83.09668534992102 10.415723090318398 H 0.0 **** 0.06
32469 H 111.94663369955236 82.88138380834886 12.1269105412069 H 0.0 **** 0.06
32470 H 111.75033519840582 81.45999300388223 11.07325050642217 H 0.0 **** 0.06
32471 C 99.16702312715364 83.42495613823655 33.53819813298841 C 0.0 **** -0.24
32472 H 99.35276231569219 83.42253076264055 34.61257806540684 H 0.0 **** 0.06
32473 H 98.34910641109323 84.10891321903995 33.31326470700722 H 0.0 **** 0.06
32474 H 98.89960176301875 82.4189759663839 33.214881208409906 H 0.0 **** 0.06
32475 H 100.06718631412613 83.74738646572544 33.015168464743994 H 0.0 **** 0.06
32476 C 17.75651998717345 1.9441596576044162 26.10964286738431 C 0.0 **** -0.24
32477 H 17.113833471608757 1.770323002750743 25.24609782638305 H 0.0 **** 0.06
32478 H 18.281505689925673 2.8927579337635336 25.98602410764778 H 0.0 **** 0.06
32479 H 18.48185782231391 1.1352816963300825 26.19079418007658 H 0.0 **** 0.06
32480 H 17.14831432583993 1.9794481697112332 27.013837956059206 H 0.0 **** 0.06
32481 C 64.1241487962372 48.16069869113464 54.57215344597483 C 0.0 **** -0.24
32482 H 63.67576314116735 48.9105401528937 53.92072179807058 H 0.0 **** 0.06
32483 H 64.87629348327488 47.59977156815726 54.01629885149402 H 0.0 **** 0.06
32484 H 63.350829583331404 47.479640982922895 54.92707161533868 H 0.0 **** 0.06
32485 H 64.59331956215306 48.653570401254676 55.42395766489883 H 0.0 **** 0.06
32486 C 85.97113593258808 5.588870127698584 122.43616058477477 C 0.0 **** -0.24
32487 H 85.71771167561832 6.629473864610958 122.63671006287379 H 0.0 **** 0.06
32488 H 86.00500588227439 5.423970194579113 121.35955298222197 H 0.0 **** 0.06
32489 H 85.217908269297 4.93902104870503 122.88171237164627 H 0.0 **** 0.06
32490 H 86.9464881606689 5.363782453683399 122.86927578968218 H 0.0 **** 0.06
32491 C 3.3552186160710846 15.612816631339172 60.22806249084306 C 0.0 **** -0.24
32492 H 3.51045697459341 15.91068483889012 59.19143831893592 H 0.0 **** 0.06
32493 H 2.7346614695174765 16.355991296429124 60.73081739017141 H 0.0 **** 0.06
32494 H 4.3182572071609115 15.541704485153616 60.73413648955591 H 0.0 **** 0.06
32495 H 2.857209940967607 14.643528000926153 60.25744030462994 H 0.0 **** 0.06
32496 C 22.137939841110054 111.30555547628887 28.866232076144463 C 0.0 **** -0.24
32497 H 21.767661569972354 112.2551152543501 29.254039267966846 H 0.0 **** 0.06
32498 H 21.845605218720117 111.20216029090307 27.820642239740742 H 0.0 **** 0.06
32499 H 21.71227857320983 110.486324100628 29.44531112311786 H 0.0 **** 0.06
32500 H 23.22412201312492 111.28074443188746 28.94458859356024 H 0.0 **** 0.06
32501 C 117.81365243119092 0.6554695585686972 88.3567276253927 C 0.0 **** -0.24
32502 H 117.25755185629404 0.8552707402405559 89.27200774695797 H 0.0 **** 0.06
32503 H 117.7540585736314 1.5229070471716852 87.69824149178004 H 0.0 **** 0.06
32504 H 117.38685465076676 -0.21260086808889866 87.85381158139182 H 0.0 **** 0.06
32505 H 118.85677474376352 0.4561395611977872 88.60159392611968 H 0.0 **** 0.06
32506 C 118.97133296518126 45.20377300331248 34.5742512153177 C 0.0 **** -0.24
32507 H 118.70814338902738 46.09974776421379 35.13678443668624 H 0.0 **** 0.06
32508 H 119.89129240913945 45.38297462899203 34.01645411064891 H 0.0 **** 0.06
32509 H 118.16705749081422 44.96140831629987 33.880560090361996 H 0.0 **** 0.06
32510 H 119.11964814378175 44.372728640674325 35.2643113894444 H 0.0 **** 0.06
32511 C 34.246057231951625 28.88726820201947 13.730867676354439 C 0.0 **** -0.24
32512 H 34.64477534033375 29.026108716070695 14.735957389079474 H 0.0 **** 0.06
32513 H 34.15960428725015 29.85572596072771 13.238075028151478 H 0.0 **** 0.06
32514 H 33.26263261551264 28.420467372257036 13.791556819218023 H 0.0 **** 0.06
32515 H 34.91783738526021 28.246780906581478 13.159152192848719 H 0.0 **** 0.06
32516 C 22.69247229734725 6.855428597282611 46.97494473962934 C 0.0 **** -0.24
32517 H 21.740795866903227 6.920366162916139 47.502974329529415 H 0.0 **** 0.06
32518 H 23.425017040443834 6.355583561777166 47.60826396306787 H 0.0 **** 0.06
32519 H 23.043177107883423 7.858568316611638 46.733015096161694 H 0.0 **** 0.06
32520 H 22.558040851676992 6.286016263779061 46.05486379119918 H 0.0 **** 0.06
32521 C 68.70638151176911 22.363566110953258 37.76894989168693 C 0.0 **** -0.24
32522 H 69.17117228201926 23.283830839236145 38.12140761333319 H 0.0 **** 0.06
32523 H 68.7084356078202 22.348765123246437 36.67906602687606 H 0.0 **** 0.06
32524 H 67.67913856680607 22.314702632112187 38.13052344633854 H 0.0 **** 0.06
32525 H 69.26512559655794 21.50645875933722 38.146219322616844 H 0.0 **** 0.06
32526 C 47.79695220929369 62.3573410786081 70.82672451588758 C 0.0 **** -0.24
32527 H 47.580620867965536 62.48247240273025 71.88734037021541 H 0.0 **** 0.06
32528 H 47.4930428327346 61.36002667855138 70.50857170065649 H 0.0 **** 0.06
32529 H 48.86681366111655 62.48267197814704 70.65775170450391 H 0.0 **** 0.06
32530 H 47.24932034725535 63.1051980603624 70.25342145942912 H 0.0 **** 0.06
32531 C 62.310926204637816 16.96047432327827 44.43130833693502 C 0.0 **** -0.24
32532 H 61.94742185766062 16.45150276292889 43.538712314549315 H 0.0 **** 0.06
32533 H 61.46487042993497 17.234722229429355 45.06258000621111 H 0.0 **** 0.06
32534 H 62.85446706494567 17.85990886386067 44.14040625398434 H 0.0 **** 0.06
32535 H 62.97636088984927 16.296193215496913 44.98284657482071 H 0.0 **** 0.06
32536 C 121.84269868290596 80.1091854693739 112.92593307966068 C 0.0 **** -0.24
32537 H 121.35168800735514 81.03237308446089 112.61726934208362 H 0.0 **** 0.06
32538 H 122.9221850376806 80.26338697557793 112.95288356536578 H 0.0 **** 0.06
32539 H 121.60680297920089 79.3175640771054 112.21471657289551 H 0.0 **** 0.06
32540 H 121.49161485158359 79.82501183393796 113.91775796176435 H 0.0 **** 0.06
32541 C 14.346120714565899 89.4624475335543 72.3447449707765 C 0.0 **** -0.24
32542 H 15.19644937770633 89.97352523244177 72.79535437508287 H 0.0 **** 0.06
32543 H 13.457921762035795 90.08777600368373 72.43292678521917 H 0.0 **** 0.06
32544 H 14.177344440751739 88.51597960410118 72.85680460343778 H 0.0 **** 0.06
32545 H 14.553987834683937 89.27301914205765 71.29053986544272 H 0.0 **** 0.06
32546 C 79.3135894963591 15.89652373552002 102.8941446010326 C 0.0 **** -0.24
32547 H 78.58594592779065 15.233883617317531 103.36302311065282 H 0.0 **** 0.06
32548 H 78.96280707100328 16.175969116131057 101.90072973635833 H 0.0 **** 0.06
32549 H 80.27192440019058 15.384505914920453 102.8114762659396 H 0.0 **** 0.06
32550 H 79.43208799296946 16.792513845834264 103.50415280165461 H 0.0 **** 0.06
32551 C 57.06811057045044 109.43686511862705 12.210253866876542 C 0.0 **** -0.24
32552 H 56.90079591623939 108.36003126568744 12.248592368238235 H 0.0 **** 0.06
32553 H 57.24770173249638 109.81244469390373 13.218118035290289 H 0.0 **** 0.06
32554 H 56.18894382588718 109.9262667704457 11.791008122896727 H 0.0 **** 0.06
32555 H 57.9344519926606 109.6474239584418 11.583455155047432 H 0.0 **** 0.06
32556 C 54.47431365566788 89.8718025077224 80.38181022646816 C 0.0 **** -0.24
32557 H 54.66460685804601 89.55785736052238 79.3552460059287 H 0.0 **** 0.06
32558 H 55.38273618034585 90.3019459307632 80.8041658956229 H 0.0 **** 0.06
32559 H 54.17106212697728 89.0085359497509 80.97393645688831 H 0.0 **** 0.06
32560 H 53.6792693905276 90.61713084787328 80.39255219811068 H 0.0 **** 0.06
32561 C 1.6168981440488324 71.96838851780822 18.801388139456158 C 0.0 **** -0.24
32562 H 2.147813890734824 72.89057407242993 18.56724000818532 H 0.0 **** 0.06
32563 H 0.8423880200960667 72.17298795225591 19.540604124158655 H 0.0 **** 0.06
32564 H 2.3181032315711576 71.23667014055044 19.201676445310262 H 0.0 **** 0.06
32565 H 1.1577233081822982 71.57337659477085 17.894434858219988 H 0.0 **** 0.06
32566 C 62.012886015600145 32.68565677480612 65.5631862066706 C 0.0 **** -0.24
32567 H 61.235341092418594 32.61988415769548 64.80247012564354 H 0.0 **** 0.06
32568 H 61.810993735498016 33.53637291175113 66.2147886500573 H 0.0 **** 0.06
32569 H 62.98170442681521 32.81792661150416 65.08231755202172 H 0.0 **** 0.06
32570 H 62.02159893196534 31.76961203782929 66.153121123336 H 0.0 **** 0.06
32571 C 87.07717519644456 68.03699119856009 61.665975462263994 C 0.0 **** -0.24
32572 H 87.6361260797714 68.00432072378345 62.60114479210747 H 0.0 **** 0.06
32573 H 87.10567132572103 67.05596926346655 61.190639663616786 H 0.0 **** 0.06
32574 H 87.52469088285648 68.77703322588394 61.001235112581845 H 0.0 **** 0.06
32575 H 86.0423063390167 68.31284623398662 61.87052037227179 H 0.0 **** 0.06
32576 C 87.35322607782038 13.72974626186624 20.813214265608877 C 0.0 **** -0.24
32577 H 87.93742037883177 13.952512807274843 19.920702540379715 H 0.0 **** 0.06
32578 H 87.01206152485202 14.661242959253741 21.265887248231373 H 0.0 **** 0.06
32579 H 87.97247053171066 13.184703036205065 21.526042680200604 H 0.0 **** 0.06
32580 H 86.49176912346445 13.12101952366595 20.541268094277985 H 0.0 **** 0.06
32581 C 49.64246640165567 87.92146578105789 65.49837045767583 C 0.0 **** -0.24
32582 H 48.66651211428524 87.9977859633712 65.01875853014357 H 0.0 **** 0.06
32583 H 49.608220264437534 88.41201346135506 66.47170820246919 H 0.0 **** 0.06
32584 H 50.39303782220395 88.40607236624658 64.87371523624475 H 0.0 **** 0.06
32585 H 49.9012860044387 86.87057345843135 65.62937767926672 H 0.0 **** 0.06
32586 C 92.10309052521905 92.6096540646256 72.81452566077786 C 0.0 **** -0.24
32587 H 92.48703248785918 91.66185243883018 72.436219146849 H 0.0 **** 0.06
32588 H 92.0823533156611 92.5838653831338 73.90381350868634 H 0.0 **** 0.06
32589 H 91.09390557766574 92.76875179012583 72.4350118039834 H 0.0 **** 0.06
32590 H 92.7489629191596 93.4224270867023 72.48131696923946 H 0.0 **** 0.06
32591 C 120.84937384168728 52.53009536417861 62.448158774914695 C 0.0 **** -0.24
32592 H 120.32952177399417 52.3844463345707 63.395447725941075 H 0.0 **** 0.06
32593 H 121.57196089045217 51.72569375989256 62.30397053045535 H 0.0 **** 0.06
32594 H 121.36929605599477 53.48808216842006 62.462487488558004 H 0.0 **** 0.06
32595 H 120.12690930985994 52.52034007879012 61.63201542606101 H 0.0 **** 0.06
32596 C 7.882577224435465 103.98202696272571 58.897303192240514 C 0.0 **** -0.24
32597 H 8.752804070634511 104.1030482838197 58.25105766070101 H 0.0 **** 0.06
32598 H 7.035619320084436 104.51858816127242 58.46824307312173 H 0.0 **** 0.06
32599 H 8.105378470789788 104.38396474798071 59.884987693135315 H 0.0 **** 0.06
32600 H 7.638782727302868 102.92302435696601 58.98124272885954 H 0.0 **** 0.06
32601 C 24.95728206527687 120.73031897344536 80.69308348191831 C 0.0 **** -0.24
32602 H 24.37542241023999 120.2374422164035 81.47250379369245 H 0.0 **** 0.06
32603 H 24.302861151765768 121.37160002968766 80.10218582963628 H 0.0 **** 0.06
32604 H 25.40877005422948 119.97744158980876 80.04652458773143 H 0.0 **** 0.06
32605 H 25.741409014380082 121.33355242946068 81.1509769974792 H 0.0 **** 0.06
32606 C 30.999247007425595 83.47529451299127 78.76707076187924 C 0.0 **** -0.24
32607 H 31.162382951753784 83.01383810423002 77.79323311361529 H 0.0 **** 0.06
32608 H 31.4560192477785 82.85925421780209 79.54191115043645 H 0.0 **** 0.06
32609 H 29.927730872278687 83.55966225687771 78.9532467177483 H 0.0 **** 0.06
32610 H 31.449187095317427 84.46768207812391 78.77860022737445 H 0.0 **** 0.06
32611 C 88.78778821119377 27.31339525973266 17.145338155977047 C 0.0 **** -0.24
32612 H 88.9571053030239 28.02275117791993 16.335732085656772 H 0.0 **** 0.06
32613 H 88.0759928383628 26.55367904839244 16.81956084319645 H 0.0 **** 0.06
32614 H 88.38633798802803 27.838651944977187 18.011618265646817 H 0.0 **** 0.06
32615 H 89.7303451789775 26.837024423803655 17.41346922488541 H 0.0 **** 0.06
32616 C 61.06835006375678 24.969634792074245 26.50981411742407 C 0.0 **** -0.24
32617 H 60.02458719596308 25.284777096866947 26.492944474258138 H 0.0 **** 0.06
32618 H 61.712822160039565 25.84348176595853 26.405610434295454 H 0.0 **** 0.06
32619 H 61.25326216395348 24.280765327053587 25.685834457022906 H 0.0 **** 0.06
32620 H 61.28168838036129 24.47227417914783 27.455419348968917 H 0.0 **** 0.06
32621 C 61.20877415269695 88.22382176376007 51.512108929523436 C 0.0 **** -0.24
32622 H 61.69152000732174 87.26772799647205 51.31051711377236 H 0.0 **** 0.06
32623 H 61.60958920754436 88.98290639546079 50.840056873599536 H 0.0 **** 0.06
32624 H 61.39865644908312 88.51572123815356 52.54577020349612 H 0.0 **** 0.06
32625 H 60.13487408270174 88.12819271515914 51.354381923910466 H 0.0 **** 0.06
32626 C 1.9467444285713782 55.32001969742979 9.19037266272025 C 0.0 **** -0.24
32627 H 1.2329346059288468 55.898851197359654 9.778056985606213 H 0.0 **** 0.06
32628 H 1.8924212261673006 55.62908332962936 8.146846068896139 H 0.0 **** 0.06
32629 H 1.7061284186020202 54.26000568690211 9.269911008311311 H 0.0 **** 0.06
32630 H 2.9544548369469226 55.49340501969642 9.56988876773869 H 0.0 **** 0.06
32631 C 98.31198659583069 14.161460329388348 61.83707987951838 C 0.0 **** -0.24
32632 H 98.15064240142254 15.149861378559336 62.26713398730468 H 0.0 **** 0.06
32633 H 99.37497997524301 14.018768295529156 61.64265717332817 H 0.0 **** 0.06
32634 H 97.75690752441355 14.076559525002594 60.90187706276341 H 0.0 **** 0.06
32635 H 97.96399132870687 13.400534097305524 62.53567396392955 H 0.0 **** 0.06
32636 C 94.34923173114026 109.47104637085545 116.54414387474947 C 0.0 **** -0.24
32637 H 95.15109224318064 109.0116915218558 115.9650643993473 H 0.0 **** 0.06
32638 H 94.64756271785532 110.4774094213358 116.84085628929678 H 0.0 **** 0.06
32639 H 94.15460189496449 108.87235365407378 117.43398284233767 H 0.0 **** 0.06
32640 H 93.44668641347448 109.52300697561026 115.93576312556593 H 0.0 **** 0.06
32641 C 32.87332338680625 81.2981809388273 8.946742818307655 C 0.0 **** -0.24
32642 H 33.03897782255622 81.6703423912814 9.958290963505988 H 0.0 **** 0.06
32643 H 32.62864870297922 82.1314579862738 8.288004787539307 H 0.0 **** 0.06
32644 H 32.04767651857337 80.58601361856023 8.953310271844941 H 0.0 **** 0.06
32645 H 33.77679841477743 80.80382329149995 8.589208846640759 H 0.0 **** 0.06
32646 C 69.26665989535249 47.7793844932674 107.59778984284483 C 0.0 **** -0.24
32647 H 69.52043534041982 48.35389113577594 106.70622249268212 H 0.0 **** 0.06
32648 H 69.10892369859371 46.736136195658915 107.32425847549493 H 0.0 **** 0.06
32649 H 68.35640160738248 48.181255416405406 108.04147066708182 H 0.0 **** 0.06
32650 H 70.08255401644999 47.84783644300204 108.31728566601234 H 0.0 **** 0.06
32651 C 82.90579778912553 25.890748570760366 12.587453906169177 C 0.0 **** -0.24
32652 H 83.24306525455393 26.730201767437393 13.195814934262728 H 0.0 **** 0.06
32653 H 82.61280427428505 26.252329236984195 11.600791622647147 H 0.0 **** 0.06
32654 H 82.05280237082434 25.41235424509506 13.068403795899002 H 0.0 **** 0.06
32655 H 83.71724034415112 25.16937125620308 12.484750694283733 H 0.0 **** 0.06
32656 C 68.74363584401942 62.32821157791696 39.20284223448499 C 0.0 **** -0.24
32657 H 68.65576340060557 62.98477918676474 40.06814247539066 H 0.0 **** 0.06
32658 H 68.06423639718477 61.48320123542413 39.31732837752236 H 0.0 **** 0.06
32659 H 69.76871435708333 61.963181217226406 39.12691397007646 H 0.0 **** 0.06
32660 H 68.48679641228875 62.881620873040106 38.29923013675557 H 0.0 **** 0.06
32661 C 76.94623031005523 30.89062203196832 99.7886545270324 C 0.0 **** -0.24
32662 H 76.92511302718785 31.854174328626243 99.27822016832613 H 0.0 **** 0.06
32663 H 77.88496289531528 30.787979960559966 100.33244937098183 H 0.0 **** 0.06
32664 H 76.86174736216742 30.08927123177935 99.05490822728751 H 0.0 **** 0.06
32665 H 76.11233481936307 30.83177249378761 100.48808441522806 H 0.0 **** 0.06
32666 C 114.0853173945249 112.83147006640115 67.2586804044416 C 0.0 **** -0.24
32667 H 113.86415176071874 112.64135246440554 68.30896902784266 H 0.0 **** 0.06
32668 H 113.48626168998021 113.67303999476519 66.90878395205249 H 0.0 **** 0.06
32669 H 113.84529682253057 111.94519703106897 66.67046070392746 H 0.0 **** 0.06
32670 H 115.1434065000204 113.06683664894848 67.1462476809472 H 0.0 **** 0.06
32671 C 117.29316088639834 58.73242215159888 37.16843858361486 C 0.0 **** -0.24
32672 H 116.43109978396527 58.24871132904474 37.62831862609863 H 0.0 **** 0.06
32673 H 118.19045654504689 58.1490738415244 37.37646842067274 H 0.0 **** 0.06
32674 H 117.40856321984876 59.735749522995434 37.578558835245744 H 0.0 **** 0.06
32675 H 117.141628199309 58.79577752516121 36.090644958172916 H 0.0 **** 0.06
32676 C 23.777986348427362 59.673397559703744 18.9284474141959 C 0.0 **** -0.24
32677 H 24.578000804422828 59.8252269866457 19.654138749084495 H 0.0 **** 0.06
32678 H 24.1345110741793 59.0285052269611 18.12491386830473 H 0.0 **** 0.06
32679 H 23.476052724731773 60.63546874657152 18.514820490077255 H 0.0 **** 0.06
32680 H 22.926160592205434 59.204813120444214 19.420222335530397 H 0.0 **** 0.06
32681 C 62.36415141119659 3.404398614274726 62.45057670166633 C 0.0 **** -0.24
32682 H 61.587205360898 4.167010475009903 62.41493930167186 H 0.0 **** 0.06
32683 H 61.982336372033615 2.5201069971253673 62.96291629622453 H 0.0 **** 0.06
32684 H 63.228723721516815 3.7908221755567695 62.98925807177098 H 0.0 **** 0.06
32685 H 62.65788397739567 3.1375094887660566 61.43475753693975 H 0.0 **** 0.06
32686 C 45.23340020029464 30.799426849525815 39.28506739379503 C 0.0 **** -0.24
32687 H 44.662797358194894 30.99813386911964 40.19237938884052 H 0.0 **** 0.06
32688 H 44.59239552758979 30.303588077018247 38.555258432080706 H 0.0 **** 0.06
32689 H 46.08034479279365 30.15530981485432 39.522937673461314 H 0.0 **** 0.06
32690 H 45.596763946227384 31.739464347407562 38.87105246083246 H 0.0 **** 0.06
32691 C 71.00388625136733 79.6518539969081 33.708881603743606 C 0.0 **** -0.24
32692 H 71.6604528150836 80.36734385985534 34.20479064649052 H 0.0 **** 0.06
32693 H 69.98995293535131 80.05281999740839 33.675931225684565 H 0.0 **** 0.06
32694 H 71.00677031784983 78.71303487752783 34.26229957219394 H 0.0 **** 0.06
32695 H 71.35905112611132 79.47721652307283 32.69374578027302 H 0.0 **** 0.06
32696 C 60.62865195643988 118.2194846294801 32.7760418445896 C 0.0 **** -0.24
32697 H 61.1281433511561 117.4513090179212 33.36771979134954 H 0.0 **** 0.06
32698 H 61.323342168090505 118.6166011688715 32.03644259593659 H 0.0 **** 0.06
32699 H 60.29506890350473 119.02381361883907 33.43236295627719 H 0.0 **** 0.06
32700 H 59.76748947699278 117.78401461694448 32.26960215440624 H 0.0 **** 0.06
32701 C 2.2137166425234778 9.866062056538965 115.57542014738075 C 0.0 **** -0.24
32702 H 1.5994768533602155 9.852126582647344 116.47630885737556 H 0.0 **** 0.06
32703 H 2.778011276797308 10.797587146929345 115.53427786576722 H 0.0 **** 0.06
32704 H 1.5724823157057344 9.78993672889817 114.69715901663159 H 0.0 **** 0.06
32705 H 2.905404482986361 9.022717219300546 115.59503275114525 H 0.0 **** 0.06
32706 C 115.89793713045303 97.76658288810282 48.08116800222484 C 0.0 **** -0.24
32707 H 115.68499937453349 96.78768536924721 48.51250241303745 H 0.0 **** 0.06
32708 H 114.99452851872064 98.37545765093307 48.099374669241854 H 0.0 **** 0.06
32709 H 116.23256840909117 97.64359810235649 47.051164713969854 H 0.0 **** 0.06
32710 H 116.6791364887451 98.25677974855117 48.66071665187911 H 0.0 **** 0.06
32711 C 117.27171360878481 60.47983963995949 0.6629498798166225 C 0.0 **** -0.24
32712 H 116.33241194065674 61.032968623491286 0.6473340500141376 H 0.0 **** 0.06
32713 H 117.85358339780781 60.77710281926335 1.5355031963848074 H 0.0 **** 0.06
32714 H 117.8368984485519 60.697643940598255 -0.2429985102792589 H 0.0 **** 0.06
32715 H 117.06188946140033 59.411244027730675 0.7127031739768785 H 0.0 **** 0.06
32716 C 65.52230314906944 31.707176629916148 78.7554001697008 C 0.0 **** -0.24
32717 H 64.65088097734707 31.71689014265081 78.10045880358422 H 0.0 **** 0.06
32718 H 66.25664160900226 32.42689650071435 78.3934078033455 H 0.0 **** 0.06
32719 H 65.96156917944933 30.710206553924763 78.75941083588907 H 0.0 **** 0.06
32720 H 65.21809831464392 31.97463288967407 79.76737284733241 H 0.0 **** 0.06
32721 C 68.90501057499483 98.87919649808964 61.58169959696216 C 0.0 **** -0.24
32722 H 67.8229429465473 98.745415695019 61.57095172403596 H 0.0 **** 0.06
32723 H 69.35630824262739 98.24143471952402 60.82170390448494 H 0.0 **** 0.06
32724 H 69.29439786791261 98.60674341935481 62.562602232654875 H 0.0 **** 0.06
32725 H 69.14420335942032 99.92114516177378 61.37166183580826 H 0.0 **** 0.06
32726 C 107.69472417297217 110.97561597356457 1.2771585372669012 C 0.0 **** -0.24
32727 H 108.71128374710958 110.58797337056316 1.3502545277405886 H 0.0 **** 0.06
32728 H 107.64509217516283 111.95581336298613 1.7533013469367074 H 0.0 **** 0.06
32729 H 107.0089654188927 110.29272261436788 1.7785682656404127 H 0.0 **** 0.06
32730 H 107.41515208366195 111.06691039575256 0.22810284577909457 H 0.0 **** 0.06
32731 C 43.1922819092141 92.39630817073765 103.6844962102856 C 0.0 **** -0.24
32732 H 42.80524162078285 91.6262595651666 104.3522447561619 H 0.0 **** 0.06
32733 H 43.37275860646787 93.30980570058335 104.2504206843015 H 0.0 **** 0.06
32734 H 42.46373748860623 92.5930204415065 102.89770750835305 H 0.0 **** 0.06
32735 H 44.12571079220743 92.05294304600602 103.23856904452327 H 0.0 **** 0.06
32736 C 46.818412892608336 69.69102820535039 38.84068823012714 C 0.0 **** -0.24
32737 H 45.98485209778025 70.08679042077605 39.42199698621644 H 0.0 **** 0.06
32738 H 46.46020108648054 69.37128214508067 37.862237476226056 H 0.0 **** 0.06
32739 H 47.25355550572192 68.8399825807341 39.36509209109701 H 0.0 **** 0.06
32740 H 47.57440176333682 70.46627364150905 38.71710646296086 H 0.0 **** 0.06
32741 C 18.218798877187794 10.230108234417493 32.90090062439262 C 0.0 **** -0.24
32742 H 18.498835724249318 11.273881678639395 32.75510436824561 H 0.0 **** 0.06
32743 H 18.37784612665365 9.954233387329168 33.94359722411005 H 0.0 **** 0.06
32744 H 18.831301409302284 9.596255670902092 32.25929893202853 H 0.0 **** 0.06
32745 H 17.167148801039104 10.097178435908443 32.646468059163595 H 0.0 **** 0.06
32746 C 75.70552143111837 10.063258219244148 0.3442468421966254 C 0.0 **** -0.24
32747 H 76.24822689032959 9.483802215244083 -0.40243290031583 H 0.0 **** 0.06
32748 H 74.6902851697501 10.24761702248756 -0.007462285515117628 H 0.0 **** 0.06
32749 H 76.21389241080925 11.013821537028463 0.5058155760972198 H 0.0 **** 0.06
32750 H 75.67054502889863 9.505829190605795 1.2804336156492013 H 0.0 **** 0.06
32751 C 12.20363192753058 74.19213321361823 17.269946512022116 C 0.0 **** -0.24
32752 H 12.158353260984143 74.36666853629507 16.19461333832392 H 0.0 **** 0.06
32753 H 11.38103368956763 73.5418885863827 17.566988885248737 H 0.0 **** 0.06
32754 H 12.124027610931762 75.14266892043622 17.795741198642137 H 0.0 **** 0.06
32755 H 13.152271383657308 73.71646539075186 17.52045495462864 H 0.0 **** 0.06
32756 C 59.26439602809263 66.25652659883781 13.069053779478338 C 0.0 **** -0.24
32757 H 59.30507763402881 67.34638175219806 13.072511499126477 H 0.0 **** 0.06
32758 H 59.05456953424885 65.90408511921754 12.059484594151826 H 0.0 **** 0.06
32759 H 58.47616646425095 65.92048706239069 13.743147054273521 H 0.0 **** 0.06
32760 H 60.222773216001904 65.85689759848134 13.402046288368638 H 0.0 **** 0.06
32761 C 79.23948555002914 100.37810836894204 72.10920293663219 C 0.0 **** -0.24
32762 H 78.26519867315372 100.15950564722624 71.67243750402423 H 0.0 **** 0.06
32763 H 79.29409099724654 101.43706881710216 72.36430334584753 H 0.0 **** 0.06
32764 H 80.02243584064479 100.13689056837529 71.38901473725747 H 0.0 **** 0.06
32765 H 79.37717821571425 99.7792457101574 73.00905644247297 H 0.0 **** 0.06
32766 C 112.01672220137654 118.45601725240809 42.2538296378934 C 0.0 **** -0.24
32767 H 112.15210326476242 117.86904933990601 41.346402690297396 H 0.0 **** 0.06
32768 H 111.77848924100722 119.48653446482614 41.98762005256151 H 0.0 **** 0.06
32769 H 112.9350279395973 118.43599436227665 42.8406582171684 H 0.0 **** 0.06
32770 H 111.2008524869996 118.03383162517837 42.840809239437505 H 0.0 **** 0.06
32771 C 91.26923021582309 5.757746992516218 69.8656033044636 C 0.0 **** -0.24
32772 H 91.23296813485837 5.076593768334135 69.0151501893601 H 0.0 **** 0.06
32773 H 90.25426979972025 6.045074000853731 70.14451333684258 H 0.0 **** 0.06
32774 H 91.83710897495217 6.647529123243203 69.59312096932052 H 0.0 **** 0.06
32775 H 91.75107395115475 5.2619183743490225 70.70769633476647 H 0.0 **** 0.06
32776 C 111.92845110267297 58.53652815814966 102.44628712768309 C 0.0 **** -0.24
32777 H 112.47380875242662 59.47207143382665 102.32288157588235 H 0.0 **** 0.06
32778 H 112.53805461172396 57.83256538419665 103.01322551182079 H 0.0 **** 0.06
32779 H 111.70455860083645 58.11515133783765 101.4657255985467 H 0.0 **** 0.06
32780 H 110.99782233043152 58.72613800289519 102.98113133203682 H 0.0 **** 0.06
32781 C 43.14063811375041 25.120947896514366 7.582189495774873 C 0.0 **** -0.24
32782 H 43.26399753244746 25.794209787045418 8.429430258644508 H 0.0 **** 0.06
32783 H 42.84766508270954 25.694194258057934 6.702061894236678 H 0.0 **** 0.06
32784 H 42.367637574737614 24.386822768151944 7.810926528178218 H 0.0 **** 0.06
32785 H 44.08171249323482 24.6076114276471 7.385027618423642 H 0.0 **** 0.06
32786 C 60.28259862773805 81.1587088290724 92.96020836833708 C 0.0 **** -0.24
32787 H 60.21588810188161 81.24311580541192 91.8757586140469 H 0.0 **** 0.06
32788 H 60.55397462789126 82.12579341343215 93.38336034358477 H 0.0 **** 0.06
32789 H 61.041611101932126 80.4212272158866 93.22030457554857 H 0.0 **** 0.06
32790 H 59.318562536841974 80.84424511412897 93.35924982270626 H 0.0 **** 0.06
32791 C 72.43769394448464 99.66283959838756 118.46186089970365 C 0.0 **** -0.24
32792 H 72.3826797239903 99.16872939887406 119.43126463876808 H 0.0 **** 0.06
32793 H 72.65483129811571 98.92400208370566 117.68993948554692 H 0.0 **** 0.06
32794 H 73.22969859306477 100.41201221843914 118.48076049882275 H 0.0 **** 0.06
32795 H 71.48452654662276 100.1448604477913 118.24545637274684 H 0.0 **** 0.06
32796 C 81.78808487001123 23.420862494493463 102.21060586241848 C 0.0 **** -0.24
32797 H 82.45373329380703 23.489414641501128 101.34974817934778 H 0.0 **** 0.06
32798 H 81.05664594035449 22.630635116280416 102.04192301902444 H 0.0 **** 0.06
32799 H 81.2719742847593 24.371087174083755 102.3475841411873 H 0.0 **** 0.06
32800 H 82.37086265107271 23.192134819191608 103.10272122583083 H 0.0 **** 0.06
32801 C 29.393082964171896 30.488736532834906 30.98670043103425 C 0.0 **** -0.24
32802 H 29.97291102325923 30.190110769685617 31.85984485522181 H 0.0 **** 0.06
32803 H 30.054323779242537 30.577914711834296 30.12418317144534 H 0.0 **** 0.06
32804 H 28.91538510833155 31.449219851759608 31.178639618670047 H 0.0 **** 0.06
32805 H 28.628994144027388 29.737889770025163 30.782569081316694 H 0.0 **** 0.06
32806 C 97.71336953142995 29.86101766401282 34.41684712642663 C 0.0 **** -0.24
32807 H 97.89019182516256 29.794268499358253 33.3432021324472 H 0.0 **** 0.06
32808 H 98.6346549384821 30.153932886538627 34.91898049760721 H 0.0 **** 0.06
32809 H 97.38788061342078 28.890147333883974 34.792575731411915 H 0.0 **** 0.06
32810 H 96.93954574064864 30.603080314004018 34.611874969776096 H 0.0 **** 0.06
32811 C 122.58104499027226 13.765438240727065 2.5697815143781604 C 0.0 **** -0.24
32812 H 121.62584951902502 14.285465149653845 2.508091377552553 H 0.0 **** 0.06
32813 H 122.55491491338552 12.879357538917752 1.9343411774587995 H 0.0 **** 0.06
32814 H 122.76701002177674 13.467085576652906 3.60146500098797 H 0.0 **** 0.06
32815 H 123.37780126505281 14.429704431558008 2.2350487908496675 H 0.0 **** 0.06
32816 C 29.84296833336191 17.55849616715065 10.942526000830185 C 0.0 **** -0.24
32817 H 28.82451487159301 17.442408769347367 11.312838541310782 H 0.0 **** 0.06
32818 H 30.44238057061392 16.703569285921475 11.255019380750412 H 0.0 **** 0.06
32819 H 30.275170756524233 18.47348612509805 11.34787225159016 H 0.0 **** 0.06
32820 H 29.829526950936327 17.614537027451888 9.85341399678481 H 0.0 **** 0.06
32821 C 109.1337433122253 121.86046902362595 17.81044008250268 C 0.0 **** -0.24
32822 H 109.50140380000067 120.85733828054018 17.593678403642258 H 0.0 **** 0.06
32823 H 108.70860097898739 121.88197129886635 18.814526159408302 H 0.0 **** 0.06
32824 H 108.36693718665717 122.1302597001054 17.084893781188953 H 0.0 **** 0.06
32825 H 109.95829640019522 122.57087572146611 17.75035962019649 H 0.0 **** 0.06
32826 C 2.3723237218739257 69.25567480347274 33.53740441298713 C 0.0 **** -0.24
32827 H 3.345480657311697 69.72598841174207 33.397226648784674 H 0.0 **** 0.06
32828 H 2.498701352203227 68.17452590607954 33.60793796139178 H 0.0 **** 0.06
32829 H 1.730018779701311 69.49159317005305 32.689039511877866 H 0.0 **** 0.06
32830 H 1.916212764825218 69.62944680648994 34.45385211298907 H 0.0 **** 0.06
32831 C 101.93244367161478 98.45189268588078 90.8657059589159 C 0.0 **** -0.24
32832 H 102.78653183249608 98.98038280655442 90.4415223097941 H 0.0 **** 0.06
32833 H 102.03660032254663 97.38307735725579 90.67706515389557 H 0.0 **** 0.06
32834 H 101.01477911712746 98.81498832259203 90.40276269878143 H 0.0 **** 0.06
32835 H 101.89190049713369 98.62913491740741 91.94005996321346 H 0.0 **** 0.06
32836 C 113.76770436502495 71.73378668876734 26.04806930818797 C 0.0 **** -0.24
32837 H 113.5538031732068 71.33253770961153 25.056970565539515 H 0.0 **** 0.06
32838 H 113.08144470004487 71.29671134041183 26.773469160817307 H 0.0 **** 0.06
32839 H 113.64244954534584 72.81628597828788 26.036168827360093 H 0.0 **** 0.06
32840 H 114.79359128666546 71.49008212274876 26.324420974369062 H 0.0 **** 0.06
32841 C 41.81211654635031 96.2453015360258 6.211406411729854 C 0.0 **** -0.24
32842 H 42.32177306004175 95.57088962471957 5.5234987695841085 H 0.0 **** 0.06
32843 H 42.28058111068803 96.18424445471885 7.193970986055234 H 0.0 **** 0.06
32844 H 40.76293864963763 95.9587215568217 6.290784286211277 H 0.0 **** 0.06
32845 H 41.882955974436754 97.26644837486347 5.836998840964185 H 0.0 **** 0.06
32846 C 82.67231324326491 59.00110902220692 38.534484452580045 C 0.0 **** -0.24
32847 H 82.23900502696182 58.71354326439592 39.4932284952377 H 0.0 **** 0.06
32848 H 82.3996051690304 60.032641936569206 38.308516845933354 H 0.0 **** 0.06
32849 H 82.29206147680577 58.34376404058966 37.75287632142562 H 0.0 **** 0.06
32850 H 83.75770065615791 58.91462574760723 38.58680984150982 H 0.0 **** 0.06
32851 C 20.890510281563536 52.965285017143565 98.29240244103619 C 0.0 **** -0.24
32852 H 20.56920064791842 52.946298528900634 99.33348828089714 H 0.0 **** 0.06
32853 H 21.36651459791841 53.92156724050168 98.07577298173737 H 0.0 **** 0.06
32854 H 20.024158987416655 52.83480769241259 97.64249988257319 H 0.0 **** 0.06
32855 H 21.60029901593461 52.15745777967985 98.11662647444302 H 0.0 **** 0.06
32856 C 11.328193579099974 93.7327359865642 84.31077906544851 C 0.0 **** -0.24
32857 H 12.272603798678272 94.14784601745112 84.66325764478256 H 0.0 **** 0.06
32858 H 10.96814374411629 92.99246418892557 85.02676302601259 H 0.0 **** 0.06
32859 H 11.479452081027024 93.25762795446383 83.34145488966183 H 0.0 **** 0.06
32860 H 10.594630302350392 94.53221868523042 84.21367919164268 H 0.0 **** 0.06
32861 C 25.337766480990354 28.39881681902824 40.51525889401787 C 0.0 **** -0.24
32862 H 25.401668257010165 29.266600829261762 39.859119748252965 H 0.0 **** 0.06
32863 H 24.731043363659808 28.644961431785532 41.386195728196626 H 0.0 **** 0.06
32864 H 26.33869524051598 28.112789890110093 40.83721277283737 H 0.0 **** 0.06
32865 H 24.879387833098747 27.56985364254234 39.975714444668526 H 0.0 **** 0.06
32866 C 118.10729822711212 17.385161437922882 40.72150150953078 C 0.0 **** -0.24
32867 H 119.10603987988594 17.822964086650842 40.70540324966922 H 0.0 **** 0.06
32868 H 118.1836927074983 16.31159958441964 40.892898532459725 H 0.0 **** 0.06
32869 H 117.61514811661297 17.567348042738935 39.76549915179399 H 0.0 **** 0.06
32870 H 117.52432396046342 17.84046549514722 41.52225076077349 H 0.0 **** 0.06
32871 C 5.800111613486621 58.395764156274055 5.912659082280335 C 0.0 **** -0.24
32872 H 4.808444618643236 58.84777586979732 5.965311187672501 H 0.0 **** 0.06
32873 H 6.215837556319457 58.316221950680216 6.917589507384694 H 0.0 **** 0.06
32874 H 6.450193498689572 59.0189877446353 5.2989017940657135 H 0.0 **** 0.06
32875 H 5.723287340197004 57.40331371765555 5.470646431894547 H 0.0 **** 0.06
32876 C 10.461268536745365 48.41809294340427 35.21566853409385 C 0.0 **** -0.24
32877 H 10.087971795218522 47.4675452486751 35.59703550266482 H 0.0 **** 0.06
32878 H 11.55073137491405 48.41731636995571 35.243058802393364 H 0.0 **** 0.06
32879 H 10.082276725586325 49.23148053990513 35.835088423418114 H 0.0 **** 0.06
32880 H 10.12244782207506 48.555651865039174 34.18856229467477 H 0.0 **** 0.06
32881 C 52.733216736548684 38.96926733220628 9.67159463545832 C 0.0 **** -0.24
32882 H 51.778435828035896 38.451168758315546 9.762409961723336 H 0.0 **** 0.06
32883 H 53.19195111761735 39.05770524084051 10.657170973185004 H 0.0 **** 0.06
32884 H 52.56890267432041 39.96360540573923 9.25595075676128 H 0.0 **** 0.06
32885 H 53.392439489118004 38.40420904480956 9.012733788460338 H 0.0 **** 0.06
32886 C 114.31321092225431 93.34412752462183 57.47367038784577 C 0.0 **** -0.24
32887 H 114.14636473604867 93.06839329583389 56.431724039322916 H 0.0 **** 0.06
32888 H 113.55611815072191 94.06391112495658 57.78429107971286 H 0.0 **** 0.06
32889 H 115.30263611478142 93.78888699480268 57.57683478575339 H 0.0 **** 0.06
32890 H 114.24819970244701 92.45407118808447 58.09914489792146 H 0.0 **** 0.06
32891 C 68.8050884578389 26.104335543842154 88.51696594558362 C 0.0 **** -0.24
32892 H 67.80942607123595 25.676163471305756 88.40636689137753 H 0.0 **** 0.06
32893 H 68.73005752785946 27.191106737305006 88.56318177211025 H 0.0 **** 0.06
32894 H 69.42093021284543 25.817964007682207 87.66395571741072 H 0.0 **** 0.06
32895 H 69.2602476448063 25.73291279332858 89.4348670076871 H 0.0 **** 0.06
32896 C 59.960128255883824 70.57999050661616 44.19419125178422 C 0.0 **** -0.24
32897 H 58.940900973924975 70.48885332357708 43.81774878379548 H 0.0 **** 0.06
32898 H 60.33150161094331 69.59443460335672 44.47809373238573 H 0.0 **** 0.06
32899 H 59.96898815473664 71.23680520605632 45.06438152753799 H 0.0 **** 0.06
32900 H 60.59769474083124 70.99796931213243 43.415945946274064 H 0.0 **** 0.06
32901 C 79.73063761930672 93.32696142450666 119.85912889832312 C 0.0 **** -0.24
32902 H 79.2558947316125 92.45790142355835 120.3157470019404 H 0.0 **** 0.06
32903 H 79.03110085702286 94.1620249163073 119.8525459364084 H 0.0 **** 0.06
32904 H 80.02014075240919 93.08598789445756 118.83554944075873 H 0.0 **** 0.06
32905 H 80.6167543655992 93.59874581432331 120.43243637861495 H 0.0 **** 0.06
32906 C 57.20989068798906 84.82704712469672 79.60147039685464 C 0.0 **** -0.24
32907 H 57.59388681391377 84.23916691218815 78.76773904709586 H 0.0 **** 0.06
32908 H 57.716776062507506 84.52730388179498 80.5196835716049 H 0.0 **** 0.06
32909 H 56.13908749717194 84.65555857976256 79.70502356868403 H 0.0 **** 0.06
32910 H 57.392474827488314 85.88555153620004 79.41467745535374 H 0.0 **** 0.06
32911 C 3.3851771745127195 30.31967060023686 54.11185346973204 C 0.0 **** -0.24
32912 H 3.9501035349322677 31.251126551741947 54.14056091710327 H 0.0 **** 0.06
32913 H 4.038296411973718 29.509484407074012 53.78759936652088 H 0.0 **** 0.06
32914 H 2.5549037263279786 30.418830559755634 53.413084983565625 H 0.0 **** 0.06
32915 H 2.998591433639689 30.09868632048847 55.10670247177916 H 0.0 **** 0.06
32916 C 20.348571382026794 72.72751097367461 82.94196478329417 C 0.0 **** -0.24
32917 H 20.89935363215259 73.66118704551141 83.0559473917944 H 0.0 **** 0.06
32918 H 20.4704306896921 72.12072940198095 83.83917521453498 H 0.0 **** 0.06
32919 H 20.731812761265687 72.18205538674206 82.07951050406436 H 0.0 **** 0.06
32920 H 19.290758280512826 72.946370000656 82.79213699798086 H 0.0 **** 0.06
32921 C 59.94941928197594 100.49675935620479 31.63585835660014 C 0.0 **** -0.24
32922 H 59.78881065933971 101.13119217228171 32.50749245311466 H 0.0 **** 0.06
32923 H 59.064510998302204 99.88212095670866 31.466547474575442 H 0.0 **** 0.06
32924 H 60.812168700574254 99.85422774554485 31.80970213796332 H 0.0 **** 0.06
32925 H 60.13191783436998 101.12124197716531 30.76106301562662 H 0.0 **** 0.06
32926 C 51.54935300169262 49.15724255507175 56.852624549711805 C 0.0 **** -0.24
32927 H 50.648181744246415 48.54416406821571 56.837123933572 H 0.0 **** 0.06
32928 H 51.32786711998648 50.11609544857157 57.3217442419521 H 0.0 **** 0.06
32929 H 51.89321925470881 49.322972903749985 55.83137011895559 H 0.0 **** 0.06
32930 H 52.326568252620746 48.646145639260936 57.41966727664956 H 0.0 **** 0.06
32931 C 67.71351302090858 56.15706355168592 17.97834690368569 C 0.0 **** -0.24
32932 H 68.6881607313675 56.30139440099549 17.51116532540715 H 0.0 **** 0.06
32933 H 67.1177961047409 57.06381976376676 17.86214107258502 H 0.0 **** 0.06
32934 H 67.84715705258 55.943852590376 19.038987982341837 H 0.0 **** 0.06
32935 H 67.20149267134488 55.3223614398799 17.50030649007664 H 0.0 **** 0.06
32936 C 78.68550583088472 111.75280267007861 117.47730000842478 C 0.0 **** -0.24
32937 H 78.96400396094921 112.52029171893743 118.20024713277334 H 0.0 **** 0.06
32938 H 79.53926238125948 111.53047896897753 116.83703517032333 H 0.0 **** 0.06
32939 H 77.85714061464239 112.11187211879901 116.8676900896819 H 0.0 **** 0.06
32940 H 78.38241417564589 110.84905214762506 118.00707886530634 H 0.0 **** 0.06
32941 C 46.27609779453347 45.25566233436484 103.79904845174235 C 0.0 **** -0.24
32942 H 45.25972231640566 44.86707368680706 103.87650803032318 H 0.0 **** 0.06
32943 H 46.32785361483495 45.976872194495 102.98291007716327 H 0.0 **** 0.06
32944 H 46.96439444430632 44.43377010349187 103.60222110057401 H 0.0 **** 0.06
32945 H 46.55047241470744 45.7438484522761 104.73439011751259 H 0.0 **** 0.06
32946 C 45.549043878572434 80.08816960416806 43.744695531807764 C 0.0 **** -0.24
32947 H 45.77628564426374 81.11144132099733 43.44849929458377 H 0.0 **** 0.06
32948 H 45.386584493847124 79.48006830924547 42.85491585086433 H 0.0 **** 0.06
32949 H 44.649630657668524 80.07922868255415 44.35997272022621 H 0.0 **** 0.06
32950 H 46.383460046841435 79.68101859627006 44.316445380547805 H 0.0 **** 0.06
32951 C 11.272349551251523 84.4701879670479 83.54775723698219 C 0.0 **** -0.24
32952 H 11.523961136732026 83.48044156309473 83.92726840949052 H 0.0 **** 0.06
32953 H 10.257701883583678 84.72926413940328 83.85142616505098 H 0.0 **** 0.06
32954 H 11.335856007369529 84.46929786437082 82.45886176114283 H 0.0 **** 0.06
32955 H 11.970944903206288 85.2031439342982 83.95168944807577 H 0.0 **** 0.06
32956 C 1.0765814964174751 10.431720147986102 74.06739823465739 C 0.0 **** -0.24
32957 H 1.4402561178994233 11.404369097893618 73.73566500907725 H 0.0 **** 0.06
32958 H 0.20119273801404347 10.151777130642117 73.48243457044413 H 0.0 **** 0.06
32959 H 0.8077671279174297 10.484959345660759 75.12224018238686 H 0.0 **** 0.06
32960 H 1.859434187540927 9.685674510768056 73.93002024461077 H 0.0 **** 0.06
32961 C 15.616778169520899 49.230824921474664 116.26454916276701 C 0.0 **** -0.24
32962 H 14.746121275094538 49.77091090889116 116.63495672572532 H 0.0 **** 0.06
32963 H 16.323110654999937 49.077681599621656 117.08048768539007 H 0.0 **** 0.06
32964 H 16.09495150834198 49.811420635474086 115.4745472001151 H 0.0 **** 0.06
32965 H 15.303424826028959 48.266053299451784 115.8667559009626 H 0.0 **** 0.06
32966 C 38.58293818113795 25.59079587040867 74.74747533892341 C 0.0 **** -0.24
32967 H 39.592023088552736 25.862932306487835 75.05531536520314 H 0.0 **** 0.06
32968 H 38.32386161272654 24.619840638793733 75.17009268362682 H 0.0 **** 0.06
32969 H 38.53805166246769 25.537495086273964 73.65928812785594 H 0.0 **** 0.06
32970 H 37.878721214470005 26.342156520261597 75.1033063520832 H 0.0 **** 0.06
32971 C 0.017007932962869177 85.31570093971939 100.07439115554553 C 0.0 **** -0.24
32972 H 0.2919305441392481 84.27205579257765 99.92506789329317 H 0.0 **** 0.06
32973 H -0.12149225902741989 85.7975707256955 99.10628456863569 H 0.0 **** 0.06
32974 H 0.8092929716987243 85.82500758253343 100.62361362993678 H 0.0 **** 0.06
32975 H -0.9115577496139196 85.36913721445663 100.64280779104945 H 0.0 **** 0.06
32976 C 61.90553494699225 27.115233785856276 41.2565929559734 C 0.0 **** -0.24
32977 H 62.22803406665332 28.033561083772952 40.76624063092867 H 0.0 **** 0.06
32978 H 60.965571495472176 27.294447113244246 41.77998621631153 H 0.0 **** 0.06
32979 H 62.66566760490127 26.798368682693194 41.971402046994 H 0.0 **** 0.06
32980 H 61.761980512882246 26.335021311971218 40.50876424821868 H 0.0 **** 0.06
32981 C 3.9614230997767095 11.544609773131896 14.898748142476904 C 0.0 **** -0.24
32982 H 4.166097949036953 10.523896830494209 14.575575698342703 H 0.0 **** 0.06
32983 H 3.9401905638080166 11.583848609458528 15.98818729400466 H 0.0 **** 0.06
32984 H 2.995613510519945 11.863199142547046 14.504682333137595 H 0.0 **** 0.06
32985 H 4.7419578645112495 12.20744330362703 14.525266791843933 H 0.0 **** 0.06
32986 C 86.36178425084597 24.886922289456436 62.78827714818696 C 0.0 **** -0.24
32987 H 85.46291029651402 24.291732045699575 62.95232096739105 H 0.0 **** 0.06
32988 H 86.39423756322182 25.700914295081418 63.512404153965655 H 0.0 **** 0.06
32989 H 86.34623763497905 25.296944633177645 61.77938716177844 H 0.0 **** 0.06
32990 H 87.24207151237707 24.25527220570291 62.91078299345428 H 0.0 **** 0.06
32991 C 119.80216479652398 61.581589047786906 29.59010731984374 C 0.0 **** -0.24
32992 H 119.78820766007213 60.49284400464717 29.646654600940337 H 0.0 **** 0.06
32993 H 118.78235069590963 61.95270428122649 29.48594955345652 H 0.0 **** 0.06
32994 H 120.39220091061166 61.89192457808764 28.727811334459147 H 0.0 **** 0.06
32995 H 120.24666083031916 61.98668922671038 30.499234514056695 H 0.0 **** 0.06
32996 C 121.82737841715212 63.211935899614105 90.05082103101697 C 0.0 **** -0.24
32997 H 121.55142201207033 62.36394546928284 89.42311529917365 H 0.0 **** 0.06
32998 H 121.04134595735218 63.389683129110324 90.78535426547529 H 0.0 **** 0.06
32999 H 121.9521482527185 64.09859504181509 89.43051538520228 H 0.0 **** 0.06
33000 H 122.76264609879583 62.993006541278646 90.56626786837228 H 0.0 **** 0.06
33001 C 52.665945336782215 111.92635143028832 33.934153622191616 C 0.0 **** -0.24
33002 H 53.49326379805453 111.33455418173972 33.543237677819604 H 0.0 **** 0.06
33003 H 53.00759458913046 112.5063150368667 34.79239672260482 H 0.0 **** 0.06
33004 H 51.8581524457889 111.26190301631192 34.24210673793786 H 0.0 **** 0.06
33005 H 52.30481611272947 112.60123260432411 33.159061929212186 H 0.0 **** 0.06
33006 C 46.49502949648905 52.87210607300028 76.39414081650608 C 0.0 **** -0.24
33007 H 45.43206265810932 53.11600159844181 76.39691101990223 H 0.0 **** 0.06
33008 H 46.98322778310438 53.385804673954226 75.56559549890102 H 0.0 **** 0.06
33009 H 46.62116113078571 51.79590522741802 76.28015123479275 H 0.0 **** 0.06
33010 H 46.94256358843279 53.19311505163307 77.335324464993 H 0.0 **** 0.06
33011 C 112.07203135577299 31.13178050545182 92.76336024092672 C 0.0 **** -0.24
33012 H 112.35100914622615 30.444832376196054 93.56242957259951 H 0.0 **** 0.06
33013 H 112.61969881895209 30.875724993490074 91.8565879246735 H 0.0 **** 0.06
33014 H 112.31533895977651 32.15227910187933 93.060708866943 H 0.0 **** 0.06
33015 H 111.000600658275 31.052864024604688 92.5759045207605 H 0.0 **** 0.06
33016 C 87.48083415409508 10.212331136921325 39.61390801625919 C 0.0 **** -0.24
33017 H 87.21010795894321 10.66829387619875 40.565773757285456 H 0.0 **** 0.06
33018 H 86.87052918047206 9.324178020534546 39.45028953400674 H 0.0 **** 0.06
33019 H 88.53426908735355 9.93144307990304 39.631822166737294 H 0.0 **** 0.06
33020 H 87.30897539628361 10.9261584607329 38.80736952925551 H 0.0 **** 0.06
33021 C 98.19811433192436 1.7717586554099842 90.72869163483662 C 0.0 **** -0.24
33022 H 97.76749075091195 1.4909566723978909 91.68980853876707 H 0.0 **** 0.06
33023 H 97.43808212740618 1.687894887329099 89.95093194923965 H 0.0 **** 0.06
33024 H 99.03039854930293 1.1067813034637375 90.49615931465061 H 0.0 **** 0.06
33025 H 98.55737804358563 2.799600525084289 90.77688698333432 H 0.0 **** 0.06
33026 C 99.9084329351781 114.72677140507847 100.16070990660404 C 0.0 **** -0.24
33027 H 99.9916860838353 114.55338318455634 101.23349392673893 H 0.0 **** 0.06
33028 H 99.18984067721613 115.52668580716448 99.9780700195561 H 0.0 **** 0.06
33029 H 99.56917402946294 113.81441977469996 99.670618075813 H 0.0 **** 0.06
33030 H 100.88052939649202 115.01439453826868 99.7622422897316 H 0.0 **** 0.06
33031 C 1.9922046355047929 36.49101214972518 52.15084812916217 C 0.0 **** -0.24
33032 H 1.2287981697641523 36.46573581991572 52.928426293567384 H 0.0 **** 0.06
33033 H 1.7648032521609558 37.28916490288168 51.44414315002365 H 0.0 **** 0.06
33034 H 2.007154112095014 35.53483714893298 51.625743255344275 H 0.0 **** 0.06
33035 H 2.9663867565883155 36.67185160762165 52.60304422544897 H 0.0 **** 0.06
33036 C 110.46701024431201 31.656041178992027 18.543329534480193 C 0.0 **** -0.24
33037 H 110.44811752833652 31.39797464190024 19.602678351700746 H 0.0 **** 0.06
33038 H 111.03572876595314 32.576218112795104 18.404024600729883 H 0.0 **** 0.06
33039 H 109.44755011448424 31.801144343584312 18.187525964658334 H 0.0 **** 0.06
33040 H 110.93711157002929 30.849608207441563 17.981363626943335 H 0.0 **** 0.06
33041 C 10.453198425421757 8.3783444745726 26.657946750038036 C 0.0 **** -0.24
33042 H 10.479528753011024 9.139215688538542 25.87899056162172 H 0.0 **** 0.06
33043 H 9.452444317205945 8.334012986766808 27.088813457786898 H 0.0 **** 0.06
33044 H 11.173736044782594 8.630751278791564 27.43655289536241 H 0.0 **** 0.06
33045 H 10.707190599090957 7.409446621081827 26.228839519046005 H 0.0 **** 0.06
33046 C 112.1844629483219 115.61604672172002 16.246702561771556 C 0.0 **** -0.24
33047 H 112.28640502224113 116.06683420465338 17.2338006218541 H 0.0 **** 0.06
33048 H 111.18528540856201 115.81486125674327 15.859176883379046 H 0.0 **** 0.06
33049 H 112.339156322118 114.53947540039526 16.32172459203715 H 0.0 **** 0.06
33050 H 112.92772801350523 116.04406005163476 15.57394869232417 H 0.0 **** 0.06
33051 C 28.79207702041097 116.62941263947161 72.22363251563121 C 0.0 **** -0.24
33052 H 29.24547785693295 115.64778890265481 72.084012744745 H 0.0 **** 0.06
33053 H 28.470452260394097 116.73719162281316 73.25963702729231 H 0.0 **** 0.06
33054 H 27.931329830809716 116.72977426458326 71.56292538312192 H 0.0 **** 0.06
33055 H 29.52323917033391 117.4025372888901 71.98822160716523 H 0.0 **** 0.06
33056 C 21.86682308731818 17.0309891191784 69.49820388434367 C 0.0 **** -0.24
33057 H 21.284495429929535 17.944631572260732 69.37962021859283 H 0.0 **** 0.06
33058 H 21.59857733057933 16.324827729408128 68.7114844202869 H 0.0 **** 0.06
33059 H 21.65414961376527 16.588671910472783 70.47140612632083 H 0.0 **** 0.06
33060 H 22.92921588653067 17.265521810447638 69.43072726968461 H 0.0 **** 0.06
33061 C 92.63914735818298 15.41209710852769 107.99235394582891 C 0.0 **** -0.24
33062 H 92.38194316655256 14.806285882424902 108.86195095666923 H 0.0 **** 0.06
33063 H 92.164098235562 16.390369354806523 108.0788235196272 H 0.0 **** 0.06
33064 H 92.28855338511414 14.915670099635804 107.08805080786391 H 0.0 **** 0.06
33065 H 93.72040117965486 15.536733851228576 107.94390889258526 H 0.0 **** 0.06
33066 C 88.80616470778685 67.00081787971956 71.76148923717932 C 0.0 **** -0.24
33067 H 89.23127150084736 67.11567483400117 70.7634034022339 H 0.0 **** 0.06
33068 H 89.22740967137165 66.11375652769266 72.2349805155678 H 0.0 **** 0.06
33069 H 87.7242823552111 66.89414830354337 71.68478014245997 H 0.0 **** 0.06
33070 H 89.0431063011722 67.88016413571032 72.36018779022484 H 0.0 **** 0.06
33071 C 98.01602485383287 112.11605282141471 94.82646187466383 C 0.0 **** -0.24
33072 H 98.1027564221659 113.1769641983585 94.59102008586018 H 0.0 **** 0.06
33073 H 99.00929270806023 111.66822176701626 94.85049151915769 H 0.0 **** 0.06
33074 H 97.41341090403046 111.62341184849298 94.06448986999771 H 0.0 **** 0.06
33075 H 97.53975343265031 111.99817738481029 95.79941511249285 H 0.0 **** 0.06
33076 C 43.05881698129244 8.866540207755111 62.45058561599109 C 0.0 **** -0.24
33077 H 42.324875460953166 9.00257185035166 63.244906311327554 H 0.0 **** 0.06
33078 H 43.73834906579677 8.057579658063553 62.719074188298634 H 0.0 **** 0.06
33079 H 43.62498129838713 9.788712925791277 62.31909196342565 H 0.0 **** 0.06
33080 H 42.546237997175865 8.619270909258809 61.52159867257507 H 0.0 **** 0.06
33081 C 104.55478138242515 26.692830543351285 82.42237301152906 C 0.0 **** -0.24
33082 H 104.66860199052161 27.736337170923854 82.12805696083606 H 0.0 **** 0.06
33083 H 105.42199078871465 26.123286730677115 82.08478902520093 H 0.0 **** 0.06
33084 H 103.65261394262367 26.28352644737459 81.96788627831162 H 0.0 **** 0.06
33085 H 104.47693954155471 26.626926980178553 83.5072077689496 H 0.0 **** 0.06
33086 C 44.68786242738324 97.75885333208811 3.856148899225886 C 0.0 **** -0.24
33087 H 44.74429200827831 98.44674458128594 3.011683660984829 H 0.0 **** 0.06
33088 H 45.18872612783426 98.20048165241755 4.717732973077773 H 0.0 **** 0.06
33089 H 45.17528648811748 96.82014352927078 3.5924505280535755 H 0.0 **** 0.06
33090 H 43.642892377809815 97.56982686275404 4.100547509595074 H 0.0 **** 0.06
33091 C 11.64432619913174 83.07171101904186 47.260205079712236 C 0.0 **** -0.24
33092 H 12.18669573482697 83.10580103604744 48.20447687528751 H 0.0 **** 0.06
33093 H 12.354068432297993 83.08479382963796 46.432517952832434 H 0.0 **** 0.06
33094 H 10.984905426578564 83.93674418946537 47.188560148345 H 0.0 **** 0.06
33095 H 11.049773823822989 82.1584972518545 47.215986416475104 H 0.0 **** 0.06
33096 C 112.72130091757157 29.56164212977106 40.58907364248881 C 0.0 **** -0.24
33097 H 112.24713204847345 28.580179886635683 40.5925202003711 H 0.0 **** 0.06
33098 H 112.76275714024314 29.941602524287603 39.56834076717968 H 0.0 **** 0.06
33099 H 113.73214651415827 29.478129954762956 40.988146345453345 H 0.0 **** 0.06
33100 H 112.14229811636181 30.247295135747166 41.208641962711226 H 0.0 **** 0.06
33101 C 102.21532783984492 9.984648941904638 1.610067413704968 C 0.0 **** -0.24
33102 H 102.62737929470393 10.060898031691067 2.6171080755621006 H 0.0 **** 0.06
33103 H 102.84504352921249 10.541557223251814 0.9171241428330461 H 0.0 **** 0.06
33104 H 101.20602053503075 10.396392004131513 1.5986850243059791 H 0.0 **** 0.06
33105 H 102.18277004317753 8.936376454889228 1.3111761675699825 H 0.0 **** 0.06
33106 C 26.780470886040746 3.305339358273642 63.40466894717701 C 0.0 **** -0.24
33107 H 27.363114471287567 3.653347348113016 64.25752122727346 H 0.0 **** 0.06
33108 H 27.455792341722145 2.98429226735729 62.6109045698665 H 0.0 **** 0.06
33109 H 26.150321046156193 4.115588950190158 63.04048794479505 H 0.0 **** 0.06
33110 H 26.154506809672675 2.466525821270949 63.70982461201037 H 0.0 **** 0.06
33111 C 68.67872525478097 20.215071244408023 73.25747254237143 C 0.0 **** -0.24
33112 H 69.15886945765908 19.701149738785034 72.42513047137805 H 0.0 **** 0.06
33113 H 68.29597745974692 21.177490118325807 72.9179476372027 H 0.0 **** 0.06
33114 H 69.40566724471662 20.374117408108418 74.05398732208562 H 0.0 **** 0.06
33115 H 67.85493592323957 19.608726556462784 73.63333602204324 H 0.0 **** 0.06
33116 C 75.21917034256666 92.74562209845658 58.2015266251573 C 0.0 **** -0.24
33117 H 75.56454453734378 93.70139037619276 58.597580761974285 H 0.0 **** 0.06
33118 H 76.02099859028758 92.01082147180918 58.276103076878684 H 0.0 **** 0.06
33119 H 74.93210365303062 92.86711896032031 57.157041891781574 H 0.0 **** 0.06
33120 H 74.35852542630977 92.40410729158617 58.777580575684226 H 0.0 **** 0.06
33121 C 69.22219965889875 80.4773024988572 13.17477074804441 C 0.0 **** -0.24
33122 H 68.69254717601885 81.40114879828502 13.404373264930086 H 0.0 **** 0.06
33123 H 68.50488057379545 79.71077412799198 12.88203246980828 H 0.0 **** 0.06
33124 H 69.77114229281156 80.14525043652546 14.055705771828343 H 0.0 **** 0.06
33125 H 69.92064022940724 80.65367148406767 12.356574014610999 H 0.0 **** 0.06
33126 C 5.450715125739151 108.52319689227198 84.63440678222281 C 0.0 **** -0.24
33127 H 5.562998544534395 107.92630861814027 85.53974206495573 H 0.0 **** 0.06
33128 H 6.386023044626285 109.04033975308596 84.4220334198028 H 0.0 **** 0.06
33129 H 4.6550398911440425 109.2545921685369 84.7798373858231 H 0.0 **** 0.06
33130 H 5.196029726047044 107.8708497800001 83.79843202979859 H 0.0 **** 0.06
33131 C 97.8795123796964 18.86230494172355 100.53152603524825 C 0.0 **** -0.24
33132 H 97.14618943469054 18.97622530433172 101.33093571288993 H 0.0 **** 0.06
33133 H 97.44673309025495 19.201971950257665 99.5911258656165 H 0.0 **** 0.06
33134 H 98.16080398774636 17.812636001826814 100.44479486183076 H 0.0 **** 0.06
33135 H 98.76258576725957 19.457686604386947 100.76179577626718 H 0.0 **** 0.06
33136 C 34.05690279417311 52.83187988348163 58.37424032047641 C 0.0 **** -0.24
33137 H 33.926011554394336 53.90334895197901 58.5281288837238 H 0.0 **** 0.06
33138 H 33.08133276921632 52.34472079429406 58.36628204059911 H 0.0 **** 0.06
33139 H 34.662710789049754 52.42087702649087 59.18179740978318 H 0.0 **** 0.06
33140 H 34.5566050235376 52.66123573037652 57.42082049217506 H 0.0 **** 0.06
33141 C 36.01706536356642 7.5355377631648395 32.678942184754284 C 0.0 **** -0.24
33142 H 35.264951198368834 6.890483618956637 33.1343020638433 H 0.0 **** 0.06
33143 H 35.5251732944883 8.370527303020069 32.17984119397347 H 0.0 **** 0.06
33144 H 36.59255308446768 6.964053050235663 31.951403059362498 H 0.0 **** 0.06
33145 H 36.684639483434864 7.916433496451404 33.452386049079664 H 0.0 **** 0.06
33146 C 61.47285412731301 94.87114065730134 0.455970981065434 C 0.0 **** -0.24
33147 H 61.78888906234718 95.85313441163771 0.10313483251235311 H 0.0 **** 0.06
33148 H 60.7503691689476 94.44922341241875 -0.24272312682899155 H 0.0 **** 0.06
33149 H 61.013674701209965 94.96893196356399 1.439327582220841 H 0.0 **** 0.06
33150 H 62.34055188941247 94.2137442102445 0.5234374075273536 H 0.0 **** 0.06
33151 C 114.87646004027674 81.11355640479991 33.983178034562854 C 0.0 **** -0.24
33152 H 114.011482561522 80.76856797482526 34.54920722563537 H 0.0 **** 0.06
33153 H 115.58971103791387 80.29547151836448 33.87635886816912 H 0.0 **** 0.06
33154 H 115.34896271361313 81.94151944455174 34.51045261684948 H 0.0 **** 0.06
33155 H 114.55478320838128 81.44648576005838 32.99603557959301 H 0.0 **** 0.06
33156 C 61.885070095908254 2.7657006561719584 45.21643605865245 C 0.0 **** -0.24
33157 H 62.18548203095444 3.5973820927638798 45.85424388388492 H 0.0 **** 0.06
33158 H 61.08631470395026 2.205259210222124 45.70204838209207 H 0.0 **** 0.06
33159 H 62.739807068088105 2.109190148664098 45.04923895686676 H 0.0 **** 0.06
33160 H 61.53073267627661 3.150134917458459 44.260483983450484 H 0.0 **** 0.06
33161 C 20.24029589443245 3.622438130643772 33.75034472624884 C 0.0 **** -0.24
33162 H 19.80349015366849 2.6392461897565482 33.931536898924094 H 0.0 **** 0.06
33163 H 21.007180301820085 3.8215532648777923 34.49950468784505 H 0.0 **** 0.06
33164 H 19.461740811116982 4.382753381838228 33.81444498502026 H 0.0 **** 0.06
33165 H 20.6881639770489 3.6430101247923403 32.756568528880905 H 0.0 **** 0.06
33166 C 102.11914790010997 37.764040463636064 14.07865824544902 C 0.0 **** -0.24
33167 H 102.2620381293847 37.65299255761397 13.003932765920265 H 0.0 **** 0.06
33168 H 101.07759521685111 38.01380168273647 14.281106944818813 H 0.0 **** 0.06
33169 H 102.76325278694435 38.56157275684879 14.449816294943371 H 0.0 **** 0.06
33170 H 102.372903450748 36.829290465302364 14.577303026373588 H 0.0 **** 0.06
33171 C 112.01295611566402 71.97875705387096 120.56376403299525 C 0.0 **** -0.24
33172 H 112.97676154863444 71.72736782496546 120.12091566243595 H 0.0 **** 0.06
33173 H 111.84210249670274 71.35532400624282 121.4409757313983 H 0.0 **** 0.06
33174 H 111.22194185472634 71.80561936114424 119.8337469541179 H 0.0 **** 0.06
33175 H 112.01123776022214 73.02857421924477 120.85783566236118 H 0.0 **** 0.06
33176 C 62.04453390592968 89.55122081159095 102.7345140834885 C 0.0 **** -0.24
33177 H 61.3057270910945 89.7473182553415 101.95710399682307 H 0.0 **** 0.06
33178 H 62.86488060067643 88.96915737453548 102.3161404317606 H 0.0 **** 0.06
33179 H 61.578171622022325 88.9920675344863 103.54531796308873 H 0.0 **** 0.06
33180 H 62.427454827738245 90.49709916590666 103.1181491407757 H 0.0 **** 0.06
33181 C 102.80405550315041 45.94488935099429 26.20366572407977 C 0.0 **** -0.24
33182 H 102.91625434754266 44.86180303135431 26.158994166832088 H 0.0 **** 0.06
33183 H 101.74401258226402 46.2010225119094 26.19444563735857 H 0.0 **** 0.06
33184 H 103.29533787325002 46.39749795371672 25.342585477679847 H 0.0 **** 0.06
33185 H 103.2606781599516 46.319290744541995 27.12036770737359 H 0.0 **** 0.06
33186 C 0.7857344326718447 87.39895054853838 17.728037722678824 C 0.0 **** -0.24
33187 H 0.5122346952762911 87.66420319495816 16.706389005048035 H 0.0 **** 0.06
33188 H -0.1178696751099153 87.27133729593228 18.323640418535884 H 0.0 **** 0.06
33189 H 1.3953407152471158 88.19417124473284 18.15738998700703 H 0.0 **** 0.06
33190 H 1.3535064762864693 86.46933843361404 17.72201554198934 H 0.0 **** 0.06
33191 C 39.038033965976894 107.17887496892672 62.32222083917202 C 0.0 **** -0.24
33192 H 38.816110905181205 106.23546652022151 62.82285931515048 H 0.0 **** 0.06
33193 H 40.117593398416346 107.32891307594127 62.29445102838457 H 0.0 **** 0.06
33194 H 38.569987533361825 107.99809970513013 62.86727721426166 H 0.0 **** 0.06
33195 H 38.648975594654786 107.15007602872373 61.304513944291045 H 0.0 **** 0.06
33196 C 87.74285507302267 115.49247032213523 116.01150791822693 C 0.0 **** -0.24
33197 H 87.96940685895996 116.17221796473956 115.1905149089024 H 0.0 **** 0.06
33198 H 88.6643164042516 115.02274651920928 116.35772284609523 H 0.0 **** 0.06
33199 H 87.0506517684887 114.72482872618662 115.66662380234563 H 0.0 **** 0.06
33200 H 87.2898160033784 116.05078877181296 116.83025769405786 H 0.0 **** 0.06
33201 C 69.07862183174512 48.75938640755922 58.56266555286686 C 0.0 **** -0.24
33202 H 69.4882508691837 47.90448114370474 59.1008255479004 H 0.0 **** 0.06
33203 H 68.75763562084899 49.51802414207867 59.27710856586452 H 0.0 **** 0.06
33204 H 68.22419845076246 48.438277938471174 57.966094334306035 H 0.0 **** 0.06
33205 H 69.8423050416134 49.176586143361334 57.9073889822709 H 0.0 **** 0.06
33206 C 20.414125019838195 20.787369928138332 42.98602387607767 C 0.0 **** -0.24
33207 H 19.474632186512274 20.971322676721172 42.46469697220088 H 0.0 **** 0.06
33208 H 21.06112476583276 20.17087641477761 42.36240125252761 H 0.0 **** 0.06
33209 H 20.212789983963415 20.2696930377586 43.92450937685552 H 0.0 **** 0.06
33210 H 20.906818284681876 21.737803270749367 43.19377853916187 H 0.0 **** 0.06
33211 C 28.391577364572555 71.41709020977623 25.631146015596073 C 0.0 **** -0.24
33212 H 29.190019379454128 71.18817240671916 26.33744634461334 H 0.0 **** 0.06
33213 H 28.524561308933954 70.82081903014205 24.72801029867486 H 0.0 **** 0.06
33214 H 28.42515562977931 72.47691963815686 25.376010193848742 H 0.0 **** 0.06
33215 H 27.427545719245643 71.18234325528965 26.083324110211322 H 0.0 **** 0.06
33216 C 103.1467140430189 61.02217154726741 5.194004749373761 C 0.0 **** -0.24
33217 H 103.25776543448222 60.663355704566136 6.217058456332154 H 0.0 **** 0.06
33218 H 103.1023351136173 62.112204443800884 5.193810584843078 H 0.0 **** 0.06
33219 H 102.22703250231919 60.62114010329025 4.76689372482744 H 0.0 **** 0.06
33220 H 103.99817140150657 60.69312839239472 4.598792126854363 H 0.0 **** 0.06
33221 C 117.91050064398513 86.17699016544768 83.66229755517332 C 0.0 **** -0.24
33222 H 118.42760673564308 87.11548254201614 83.86239374186897 H 0.0 **** 0.06
33223 H 117.94593777407678 85.54748217731247 84.55099378454148 H 0.0 **** 0.06
33224 H 118.39597578179884 85.66454886205472 82.8326868976493 H 0.0 **** 0.06
33225 H 116.87189957557081 86.38340465447169 83.4044992048668 H 0.0 **** 0.06
33226 C 68.60992427657652 49.3378696275916 91.0968667587972 C 0.0 **** -0.24
33227 H 67.87273095221227 48.5521080421214 91.26367172169438 H 0.0 **** 0.06
33228 H 69.40372173554957 48.958782899360656 90.45261989715283 H 0.0 **** 0.06
33229 H 69.03287946846058 49.647554788844495 92.05248233517608 H 0.0 **** 0.06
33230 H 68.12893359608333 50.190779162125196 90.61775880212718 H 0.0 **** 0.06
33231 C 49.30979493950707 93.72748144192119 18.99991363547946 C 0.0 **** -0.24
33232 H 49.33522441282901 94.03315039341575 17.953394152230004 H 0.0 **** 0.06
33233 H 49.76345574853411 94.5046888150369 19.61543921061309 H 0.0 **** 0.06
33234 H 49.86603836774003 92.79824225347073 19.119692015262018 H 0.0 **** 0.06
33235 H 48.27622759071704 93.57573010977578 19.308614321302457 H 0.0 **** 0.06
33236 C 83.30149628309033 91.32024862739078 38.589062002760166 C 0.0 **** -0.24
33237 H 83.04214485746562 91.40739695246018 39.64484333247052 H 0.0 **** 0.06
33238 H 82.42672333689907 90.99570100924495 38.02591615801838 H 0.0 **** 0.06
33239 H 84.10202482977377 90.58895060738624 38.47179114978416 H 0.0 **** 0.06
33240 H 83.6361909046586 92.28862627709077 38.21628404952888 H 0.0 **** 0.06
33241 C 114.31796248007947 106.97609251435765 11.471122759434365 C 0.0 **** -0.24
33242 H 115.35802406930871 107.17279391713043 11.729609760271387 H 0.0 **** 0.06
33243 H 114.25221205468567 106.03766871423613 10.920877576415847 H 0.0 **** 0.06
33244 H 113.93712814381985 107.78853782882689 10.852453272048507 H 0.0 **** 0.06
33245 H 113.72442535652226 106.90503717295636 12.383976576661496 H 0.0 **** 0.06
33246 C 40.59676917766189 62.456845716394696 101.53347075080293 C 0.0 **** -0.24
33247 H 40.047876721506036 61.70404945380636 100.96752906004218 H 0.0 **** 0.06
33248 H 39.89112351922576 63.1053182496629 102.05453486475724 H 0.0 **** 0.06
33249 H 41.20294787461141 63.05383731289356 100.85111261463851 H 0.0 **** 0.06
33250 H 41.24377866232823 61.965620056880084 102.25925799838271 H 0.0 **** 0.06
33251 C 2.142311152524794 93.82855397940148 68.03859861420497 C 0.0 **** -0.24
33252 H 2.3180044808143307 93.01999615646693 67.32971627039353 H 0.0 **** 0.06
33253 H 1.2622155077422708 93.59987704600024 68.64015632581027 H 0.0 **** 0.06
33254 H 1.980955246975272 94.75925652652688 67.49515023532174 H 0.0 **** 0.06
33255 H 3.009798552295086 93.93407724917171 68.69078312080171 H 0.0 **** 0.06
33256 C 95.2135152290546 67.8899803553407 98.76426660477435 C 0.0 **** -0.24
33257 H 94.49074001841399 68.572911015307 99.21166674525557 H 0.0 **** 0.06
33258 H 95.17926541529181 67.98668564225477 97.67912414202999 H 0.0 **** 0.06
33259 H 94.96695313950244 66.86661622610382 99.04569879524976 H 0.0 **** 0.06
33260 H 96.21427919341133 68.13469258023474 99.12032776349062 H 0.0 **** 0.06
33261 C 68.26566688470422 24.847236195999244 34.486418306974514 C 0.0 **** -0.24
33262 H 68.04066071164377 25.16194009722571 35.50525331955717 H 0.0 **** 0.06
33263 H 67.3629184630557 24.451939512045016 34.01998397565802 H 0.0 **** 0.06
33264 H 69.0333921560576 24.073056620567115 34.507396455324525 H 0.0 **** 0.06
33265 H 68.62678041291028 25.70200383894334 33.91499517567931 H 0.0 **** 0.06
33266 C 30.143212827056317 100.60840640312355 47.47906663086101 C 0.0 **** -0.24
33267 H 29.14329051367841 100.6583293756236 47.90958976616241 H 0.0 **** 0.06
33268 H 30.7659465995296 99.94642836176669 48.08047732955191 H 0.0 **** 0.06
33269 H 30.582098302852273 101.60615067174328 47.46474689782232 H 0.0 **** 0.06
33270 H 30.08118399532232 100.22430274349134 46.46083928120876 H 0.0 **** 0.06
33271 C 115.84878577418414 94.07260330483567 97.60630504991505 C 0.0 **** -0.24
33272 H 115.3203965141999 93.29612939199865 97.05304364022271 H 0.0 **** 0.06
33273 H 115.12683945360666 94.77907798000712 98.0187529884605 H 0.0 **** 0.06
33274 H 116.52879548987694 94.59781684497321 96.93492907227338 H 0.0 **** 0.06
33275 H 116.41731063958937 93.6184355050421 98.4176811651997 H 0.0 **** 0.06
33276 C 50.49662805958681 94.30568479666235 72.87276238179058 C 0.0 **** -0.24
33277 H 51.55080021761766 94.0283861820794 72.88304238854707 H 0.0 **** 0.06
33278 H 49.9440596700492 93.61033338569419 72.24165172109878 H 0.0 **** 0.06
33279 H 50.39108973924752 95.3171982779491 72.47926228395511 H 0.0 **** 0.06
33280 H 50.10061513308341 94.26826460686803 73.88804937196593 H 0.0 **** 0.06
33281 C 52.94053445912803 111.57443660150876 14.684518881413595 C 0.0 **** -0.24
33282 H 53.43869856348559 112.14198293364944 15.469170202411675 H 0.0 **** 0.06
33283 H 53.616458346621386 110.8062703427835 14.306754784407616 H 0.0 **** 0.06
33284 H 52.66165363722689 112.2444751877274 13.871103290076121 H 0.0 **** 0.06
33285 H 52.044645280200626 111.10333178386095 15.089406496223404 H 0.0 **** 0.06
33286 C 22.760748792864803 30.355549997424788 42.775854947508265 C 0.0 **** -0.24
33287 H 22.777313221905914 29.906285969823955 43.76914373609543 H 0.0 **** 0.06
33288 H 22.23622538536396 31.309927718242335 42.81812160564971 H 0.0 **** 0.06
33289 H 22.245936349788494 29.687855112231233 42.08474002267292 H 0.0 **** 0.06
33290 H 23.78232851001576 30.516840781237903 42.43237093493559 H 0.0 **** 0.06
33291 C 91.75947133771837 112.04391987668136 68.6851297054535 C 0.0 **** -0.24
33292 H 92.63334931724194 112.69366738277617 68.63869073310576 H 0.0 **** 0.06
33293 H 91.6932010811133 111.45941603699983 67.76661147852084 H 0.0 **** 0.06
33294 H 90.86096430078996 112.65130922917054 68.79452538111968 H 0.0 **** 0.06
33295 H 91.85097255046321 111.37214925849617 69.53847891876131 H 0.0 **** 0.06
33296 C 46.66050336757587 23.32961030259554 94.973640576582 C 0.0 **** -0.24
33297 H 47.59697041312046 23.886169122280307 94.9601196427962 H 0.0 **** 0.06
33298 H 46.84955063939904 22.30767481097979 95.30300987603943 H 0.0 **** 0.06
33299 H 46.23274777857965 23.315909031498904 93.97048423914578 H 0.0 **** 0.06
33300 H 45.96228093377928 23.810483926598693 95.65881290970378 H 0.0 **** 0.06
33301 C 12.450949018857841 59.071838170690484 100.51445524786766 C 0.0 **** -0.24
33302 H 12.596971713811044 58.49906479896944 99.59936886263091 H 0.0 **** 0.06
33303 H 12.15366515173794 58.399517946593534 101.32011027576857 H 0.0 **** 0.06
33304 H 11.671677712641952 59.816613548419184 100.35714689111956 H 0.0 **** 0.06
33305 H 13.382187561880784 59.57014532445075 100.78330626343404 H 0.0 **** 0.06
33306 C 44.24145433053454 60.89656054451391 79.64937686562521 C 0.0 **** -0.24
33307 H 44.76160355886955 61.845788581602015 79.77549589347163 H 0.0 **** 0.06
33308 H 43.45646857729648 60.80989254546977 80.40101919175632 H 0.0 **** 0.06
33309 H 44.94877799025349 60.07548971298771 79.76683352962152 H 0.0 **** 0.06
33310 H 43.79843404889024 60.85423663623663 78.65402070607686 H 0.0 **** 0.06
33311 C 45.55517347895507 112.42382727792915 121.08043543606743 C 0.0 **** -0.24
33312 H 46.256744965567805 113.0992627043787 121.5698376769683 H 0.0 **** 0.06
33313 H 44.535786061516234 112.69795504852013 121.35334279236795 H 0.0 **** 0.06
33314 H 45.75416162304646 111.40045915036902 121.39980601422357 H 0.0 **** 0.06
33315 H 45.674557140655224 112.49589603924295 119.99957802565956 H 0.0 **** 0.06
33316 C 29.860793380557354 15.853408849499317 78.80414950294465 C 0.0 **** -0.24
33317 H 29.102753894384904 15.17586788215516 79.19741470289426 H 0.0 **** 0.06
33318 H 29.71955854669055 15.972813914826702 77.72979606948181 H 0.0 **** 0.06
33319 H 30.85118785323405 15.440409013361375 78.99695531717299 H 0.0 **** 0.06
33320 H 29.769590621846646 16.823150569652626 79.29265553209947 H 0.0 **** 0.06
33321 C 77.23090011723625 40.714025006948134 114.52122004931388 C 0.0 **** -0.24
33322 H 77.56358823411182 41.199170212228694 115.43846638266383 H 0.0 **** 0.06
33323 H 76.2579918921644 41.11355570943982 114.23169105557213 H 0.0 **** 0.06
33324 H 77.14766713500063 39.64055048869591 114.68697222312736 H 0.0 **** 0.06
33325 H 77.95271281345356 40.90499159461427 113.72696987780951 H 0.0 **** 0.06
33326 C 28.666659451089146 94.44560619441356 10.143050449159205 C 0.0 **** -0.24
33327 H 29.482998901820636 94.92443912631057 9.60145917867186 H 0.0 **** 0.06
33328 H 27.714311208027993 94.82913964116915 9.77709001121508 H 0.0 **** 0.06
33329 H 28.76228581215716 94.66235588848335 11.207152566907894 H 0.0 **** 0.06
33330 H 28.710254279651664 93.36812234300297 9.98663073330988 H 0.0 **** 0.06
33331 C 113.79890260559392 85.14214854798786 112.82075582073193 C 0.0 **** -0.24
33332 H 113.89140935315348 84.05716701007711 112.85969996316118 H 0.0 **** 0.06
33333 H 114.25404762154439 85.57681677390073 113.71149414100498 H 0.0 **** 0.06
33334 H 112.7452272467089 85.41646618612572 112.78084161995545 H 0.0 **** 0.06
33335 H 114.30658767490148 85.5181274277702 111.93278743555351 H 0.0 **** 0.06
33336 C 114.16101867897953 55.50565358132812 29.846405127355183 C 0.0 **** -0.24
33337 H 114.65685829639358 55.47484088476523 30.817273734553112 H 0.0 **** 0.06
33338 H 113.76822978874465 54.51631650782954 29.60837306558102 H 0.0 **** 0.06
33339 H 114.87760183385201 55.80594950902659 29.081929446572303 H 0.0 **** 0.06
33340 H 113.34136943693628 56.22351042659412 29.87946274804773 H 0.0 **** 0.06
33341 C 62.810709618835006 113.4422482134662 121.3811960586549 C 0.0 **** -0.24
33342 H 63.141747416153464 114.10381818007033 120.58079786164166 H 0.0 **** 0.06
33343 H 61.7786005515149 113.67350982690743 121.64118253799433 H 0.0 **** 0.06
33344 H 63.44711906130314 113.58386623483469 122.25559560843908 H 0.0 **** 0.06
33345 H 62.87943503188711 112.40622203400204 121.0471559582648 H 0.0 **** 0.06
33346 C 87.45618063314325 111.62847034630994 18.80323622222872 C 0.0 **** -0.24
33347 H 86.3876978855599 111.68296447631477 19.011807884752386 H 0.0 **** 0.06
33348 H 87.99491406835241 111.40975191401012 19.726359063755012 H 0.0 **** 0.06
33349 H 87.7974701236947 112.58101607815186 18.399857796521644 H 0.0 **** 0.06
33350 H 87.64438081399183 110.83740258400661 18.077241989395134 H 0.0 **** 0.06
33351 C 64.06052311251716 117.1997747191933 113.18853736699545 C 0.0 **** -0.24
33352 H 64.50146370907163 117.95211836783693 112.53446201753073 H 0.0 **** 0.06
33353 H 64.22763581955525 117.48034994457456 114.2281863378994 H 0.0 **** 0.06
33354 H 64.5238310707307 116.23257101335173 112.9938713646473 H 0.0 **** 0.06
33355 H 62.9891367689524 117.13476189768241 112.99640247801443 H 0.0 **** 0.06
33356 C 117.7619833255736 88.47261959501077 104.8445305900473 C 0.0 **** -0.24
33357 H 118.00474878441707 89.10775515209428 105.6963843796284 H 0.0 **** 0.06
33358 H 116.86216356969004 87.89811756047419 105.06520674728645 H 0.0 **** 0.06
33359 H 118.59092740156399 87.79180697110934 104.65190400821427 H 0.0 **** 0.06
33360 H 117.59032369545312 89.09412683000266 103.96610482961069 H 0.0 **** 0.06
33361 C 30.720770109517844 9.669035456822375 106.42203186400047 C 0.0 **** -0.24
33362 H 29.985268763133604 9.802334387143954 107.21570517471338 H 0.0 **** 0.06
33363 H 31.718063788744644 9.609580867819048 106.85933915725983 H 0.0 **** 0.06
33364 H 30.674571861029335 10.516068141673564 105.7378794999041 H 0.0 **** 0.06
33365 H 30.50660879601986 8.749525524962234 105.87745722608284 H 0.0 **** 0.06
33366 C 69.72248250190245 10.769159733453876 49.952391131393426 C 0.0 **** -0.24
33367 H 69.60821357062358 9.749272880820854 49.58476147584577 H 0.0 **** 0.06
33368 H 69.93774171134257 11.434541968349095 49.11717020056216 H 0.0 **** 0.06
33369 H 70.54274170721067 10.807029051086658 50.66986721580608 H 0.0 **** 0.06
33370 H 68.79936680413076 11.084019440549639 50.43985492173897 H 0.0 **** 0.06
33371 C 62.172058871158555 18.312834884226817 37.3997955548416 C 0.0 **** -0.24
33372 H 63.02957334023384 17.651720288990333 37.52480976402876 H 0.0 **** 0.06
33373 H 62.51379323294489 19.290836245703872 37.06040034002183 H 0.0 **** 0.06
33374 H 61.653051568700704 18.41827827847024 38.352570580172085 H 0.0 **** 0.06
33375 H 61.492594692010016 17.888794036038007 36.65983003595903 H 0.0 **** 0.06
33376 C 108.02110927172964 58.78601548049127 2.3381741266287435 C 0.0 **** -0.24
33377 H 108.9453995833295 58.770888416373225 2.914881736237291 H 0.0 **** 0.06
33378 H 107.91831770439688 57.84647386315879 1.79343319705481 H 0.0 **** 0.06
33379 H 108.04696340124778 59.615225815890994 1.6315279031163925 H 0.0 **** 0.06
33380 H 107.17383786920166 58.90907439741008 3.0133399172141537 H 0.0 **** 0.06
33381 C 66.18873253800652 4.933065733475221 67.3894617731959 C 0.0 **** -0.24
33382 H 65.82110701849894 4.580449482014606 66.42581848580863 H 0.0 **** 0.06
33383 H 66.20318647853887 6.023066350123639 67.3958556978601 H 0.0 **** 0.06
33384 H 67.19710845186987 4.554795900292753 67.55356542489685 H 0.0 **** 0.06
33385 H 65.53186590929289 4.573717938114468 68.18218024373235 H 0.0 **** 0.06
33386 C 116.49707086650648 26.548228223922706 54.6596126601442 C 0.0 **** -0.24
33387 H 115.93656576450348 27.26731375356428 54.063293038686574 H 0.0 **** 0.06
33388 H 116.22801774485575 25.53594632583213 54.355315117209976 H 0.0 **** 0.06
33389 H 116.25822462645124 26.686118303332876 55.71384313454089 H 0.0 **** 0.06
33390 H 117.56501662489089 26.702734245039267 54.50561306483001 H 0.0 **** 0.06
33391 C 29.342226847761594 67.1468539534392 41.22463077002752 C 0.0 **** -0.24
33392 H 30.214579926043257 66.52157232373486 41.41449154830764 H 0.0 **** 0.06
33393 H 29.336542735172884 67.98444046934787 41.92262624718404 H 0.0 **** 0.06
33394 H 28.43605611640652 66.55539362534233 41.356919981857516 H 0.0 **** 0.06
33395 H 29.383061826756375 67.52491638202136 40.2030611741061 H 0.0 **** 0.06
33396 C 21.366409730600083 30.501183895008978 39.19523371600357 C 0.0 **** -0.24
33397 H 21.290949179380902 29.533025792887827 39.68898127473193 H 0.0 **** 0.06
33398 H 20.425107153821983 30.726477375043146 38.692589198035904 H 0.0 **** 0.06
33399 H 22.172269248291286 30.47363266611717 38.462814154944795 H 0.0 **** 0.06
33400 H 21.57567637071159 31.27136246952108 39.93706423576438 H 0.0 **** 0.06
33401 C 97.59313816210127 48.49452871196081 37.08181574082704 C 0.0 **** -0.24
33402 H 97.52754654904169 49.39872815149732 36.47644209002888 H 0.0 **** 0.06
33403 H 96.87890314242892 47.758687146562664 36.71284740097225 H 0.0 **** 0.06
33404 H 97.3625026316571 48.73533659538796 38.12020440530276 H 0.0 **** 0.06
33405 H 98.60169251625942 48.087351080151194 37.01840786746581 H 0.0 **** 0.06
33406 C 2.8228184009850423 3.36654397703893 94.89737824373827 C 0.0 **** -0.24
33407 H 3.7322693576384296 3.3877574475336587 95.49724992666165 H 0.0 **** 0.06
33408 H 2.3370154491643262 4.34195084621436 94.94160642199802 H 0.0 **** 0.06
33409 H 2.1473989187811355 2.6056101431668424 95.2880166140738 H 0.0 **** 0.06
33410 H 3.074847333033844 3.1332877870279106 93.86247383087684 H 0.0 **** 0.06
33411 C 15.688998575811127 32.21539270328188 85.19046694470904 C 0.0 **** -0.24
33412 H 16.146476580594594 31.239209610088352 85.347618167393 H 0.0 **** 0.06
33413 H 15.79689655955923 32.503184967199275 84.14478594333838 H 0.0 **** 0.06
33414 H 16.182952395332222 32.9532448549503 85.82372205078508 H 0.0 **** 0.06
33415 H 14.630958396385495 32.166403900184235 85.44750623111128 H 0.0 **** 0.06
33416 C 101.45497935381178 43.709391213695895 87.73710960716107 C 0.0 **** -0.24
33417 H 102.50668895352004 43.99538876435832 87.76207900374968 H 0.0 **** 0.06
33418 H 101.18668492033981 43.22671115968234 88.67750327915374 H 0.0 **** 0.06
33419 H 101.28691011740631 43.01595899083265 86.91197645700893 H 0.0 **** 0.06
33420 H 100.8403675298108 44.59780165771656 87.59613354297971 H 0.0 **** 0.06
33421 C 35.58061354725396 13.157532140032572 65.86856568333326 C 0.0 **** -0.24
33422 H 36.55608380226446 12.858563649473354 65.48489426949948 H 0.0 **** 0.06
33423 H 34.80439033966797 12.559797878556196 65.39130329726555 H 0.0 **** 0.06
33424 H 35.412731749352965 14.212451856496955 65.65016408464672 H 0.0 **** 0.06
33425 H 35.55048546180919 12.999422274631456 66.94669355476711 H 0.0 **** 0.06
33426 C 73.33017584358979 85.80866919393884 43.23580345635253 C 0.0 **** -0.24
33427 H 74.36807774880006 85.4907511757296 43.340731840841045 H 0.0 **** 0.06
33428 H 73.22419444582346 86.41218666378097 42.333143023962464 H 0.0 **** 0.06
33429 H 73.04235538084885 86.40072345253958 44.10420614592135 H 0.0 **** 0.06
33430 H 72.68743047139526 84.93140391899024 43.165014106006964 H 0.0 **** 0.06
33431 C 64.80703506382832 87.97637846148444 43.665879233728674 C 0.0 **** -0.24
33432 H 64.35862392738912 87.08588118861687 43.224702147011755 H 0.0 **** 0.06
33433 H 65.35151607363616 88.5260480026678 42.89792547971348 H 0.0 **** 0.06
33434 H 65.49448266539409 87.68206755301426 44.45851091242341 H 0.0 **** 0.06
33435 H 64.02315320875377 88.6099852402314 44.08002869939389 H 0.0 **** 0.06
33436 C 120.21337769589906 14.266359803998455 30.99148081988497 C 0.0 **** -0.24
33437 H 119.3715547956997 14.498667398048156 31.64363993141734 H 0.0 **** 0.06
33438 H 120.53401817484031 13.238801811275835 31.16562855793279 H 0.0 **** 0.06
33439 H 121.03773756908208 14.946218260640592 31.205906537105193 H 0.0 **** 0.06
33440 H 119.90889596318985 14.380256338873778 29.950998915658403 H 0.0 **** 0.06
33441 C 62.27811377388463 99.07106597770454 54.63100385948886 C 0.0 **** -0.24
33442 H 62.557580303532404 98.91969419113934 53.58785610883143 H 0.0 **** 0.06
33443 H 62.59309048758246 98.2085933011547 55.21934282889546 H 0.0 **** 0.06
33444 H 61.19659169483646 99.1857891109288 54.70331376969213 H 0.0 **** 0.06
33445 H 62.765156863211075 99.96874851028639 55.010686857469864 H 0.0 **** 0.06
33446 C 65.14052492800741 35.05517190678913 79.64793679339596 C 0.0 **** -0.24
33447 H 65.36746605746518 36.11505003787124 79.53062853232257 H 0.0 **** 0.06
33448 H 65.0918218702063 34.810121401473 80.70946138347531 H 0.0 **** 0.06
33449 H 65.92089611497099 34.46137052184463 79.17255923303324 H 0.0 **** 0.06
33450 H 64.18091574691653 34.83607969385997 79.17960789677298 H 0.0 **** 0.06
33451 C 47.20046069617502 121.52329669036824 49.05181798464102 C 0.0 **** -0.24
33452 H 46.919869246129885 121.08670031289017 50.01055684071761 H 0.0 **** 0.06
33453 H 47.75285882806049 120.78801677596188 48.46591873248417 H 0.0 **** 0.06
33454 H 47.826244180306624 122.39946485616312 49.220561831186274 H 0.0 **** 0.06
33455 H 46.300471875870585 121.8175068703869 48.51028985381615 H 0.0 **** 0.06
33456 C 117.07695706729604 61.31308847646332 22.93375203917367 C 0.0 **** -0.24
33457 H 116.76528278781555 61.23061526566747 21.89240989792475 H 0.0 **** 0.06
33458 H 118.1460799584455 61.11571561198946 23.01048086044335 H 0.0 **** 0.06
33459 H 116.5288876561784 60.58756016293137 23.534867432809477 H 0.0 **** 0.06
33460 H 116.86595341848519 62.318869774699806 23.297692412746386 H 0.0 **** 0.06
33461 C 99.52706318791041 66.47787258999486 65.9422451305955 C 0.0 **** -0.24
33462 H 98.7647958036757 66.10069577923738 66.62372674943197 H 0.0 **** 0.06
33463 H 99.7360772879725 65.72661253938591 65.17958881109962 H 0.0 **** 0.06
33464 H 100.43837069755713 66.6942160468478 66.49996035671398 H 0.0 **** 0.06
33465 H 99.1676814716323 67.3901975153851 65.46527532949699 H 0.0 **** 0.06
33466 C 15.439290105445195 54.29333644413315 110.2606288127428 C 0.0 **** -0.24
33467 H 16.233062493593632 54.79281704961134 110.81452460843124 H 0.0 **** 0.06
33468 H 15.064322727822255 54.95815574236011 109.48287122739029 H 0.0 **** 0.06
33469 H 14.62766449113743 54.035707765879756 110.94150507814419 H 0.0 **** 0.06
33470 H 15.831378544397701 53.38456346337754 109.80383075701059 H 0.0 **** 0.06
33471 C 28.84291912165307 76.6668586043088 49.49264179613729 C 0.0 **** -0.24
33472 H 28.410104444007374 75.84677576543243 50.0668567419178 H 0.0 **** 0.06
33473 H 29.46896705549085 77.2759844450207 50.145488549799296 H 0.0 **** 0.06
33474 H 28.043352649768423 77.28084451578064 49.078495843655446 H 0.0 **** 0.06
33475 H 29.447604851462614 76.26320728100262 48.68142861489753 H 0.0 **** 0.06
33476 C 87.59307792984887 42.41597613779953 121.95664728238216 C 0.0 **** -0.24
33477 H 87.19313454743428 42.65283105667888 122.94260680042 H 0.0 **** 0.06
33478 H 87.04740984999896 41.569608654814516 121.53831772983773 H 0.0 **** 0.06
33479 H 88.64856315250248 42.16015237257176 122.04519801569548 H 0.0 **** 0.06
33480 H 87.48130852807978 43.27999484877273 121.30238254980102 H 0.0 **** 0.06
33481 C 35.00059285568018 67.64112774986873 93.75647911241148 C 0.0 **** -0.24
33482 H 35.70150040074184 68.03755198168105 94.4908438373748 H 0.0 **** 0.06
33483 H 35.03037414692958 68.25533943845136 92.85680574115008 H 0.0 **** 0.06
33484 H 33.993439652111974 67.65347684264646 94.1730388916242 H 0.0 **** 0.06
33485 H 35.27839683788956 66.61648385665467 93.50590164640317 H 0.0 **** 0.06
33486 C 6.534231162965085 34.74352486745582 14.006193595788375 C 0.0 **** -0.24
33487 H 7.2296160962192175 34.93540910461746 13.188272185080564 H 0.0 **** 0.06
33488 H 6.007341724676422 33.807138089713504 13.822695771538974 H 0.0 **** 0.06
33489 H 5.813923578596501 35.56009219274327 14.06774023868013 H 0.0 **** 0.06
33490 H 7.086139220768985 34.673677438263155 14.943053729743554 H 0.0 **** 0.06
33491 C 11.344245386080217 14.890261718724204 17.807445422451877 C 0.0 **** -0.24
33492 H 11.998593265938752 14.021136440549718 17.74352980563701 H 0.0 **** 0.06
33493 H 11.31657150641658 15.396476468103508 16.842245991073185 H 0.0 **** 0.06
33494 H 11.724273705114285 15.575045612286516 18.566300933560342 H 0.0 **** 0.06
33495 H 10.339247232671568 14.569006301071692 18.07855005294641 H 0.0 **** 0.06
33496 C 12.394772882020447 64.54890049742 108.53711127638803 C 0.0 **** -0.24
33497 H 12.910173777383335 63.63473261072559 108.24364563013398 H 0.0 **** 0.06
33498 H 12.365474753502241 64.61614328319047 109.62504289424112 H 0.0 **** 0.06
33499 H 11.377184576661875 64.53424437711894 108.14613634925854 H 0.0 **** 0.06
33500 H 12.92625842053431 65.41048171864489 108.13362023191848 H 0.0 **** 0.06
33501 C 103.76589312390715 29.089525476753266 113.84806172308106 C 0.0 **** -0.24
33502 H 103.15159406182079 29.990035976098312 113.8502163206989 H 0.0 **** 0.06
33503 H 103.97234514728768 28.78681835432465 114.87475841808813 H 0.0 **** 0.06
33504 H 104.70522225564108 29.292808487445967 113.33359409320354 H 0.0 **** 0.06
33505 H 103.2351453671406 28.28891385852822 113.33161999750675 H 0.0 **** 0.06
33506 C 61.39843930672407 109.46843483918474 73.10845398099357 C 0.0 **** -0.24
33507 H 61.644593262903356 108.40788829216672 73.07607673936215 H 0.0 **** 0.06
33508 H 62.05510450593886 110.01548569279475 72.43075316156705 H 0.0 **** 0.06
33509 H 61.531958076530316 109.84198023661588 74.1242274607155 H 0.0 **** 0.06
33510 H 60.36193761156875 109.61079831543861 72.80314595660968 H 0.0 **** 0.06
33511 C 92.83900022067073 60.85955953347558 73.18499366075488 C 0.0 **** -0.24
33512 H 93.11043424386827 61.689884560944684 73.8374153695415 H 0.0 **** 0.06
33513 H 91.99329392519712 61.1505455452041 72.56070188838996 H 0.0 **** 0.06
33514 H 92.56303891867492 59.99614047443942 73.7909417256613 H 0.0 **** 0.06
33515 H 93.68769270759603 60.60326529863334 72.55118498821875 H 0.0 **** 0.06
33516 C 39.248014537180055 84.25149656905057 30.982857480146976 C 0.0 **** -0.24
33517 H 38.298814244191675 84.14038088746199 31.50656752421517 H 0.0 **** 0.06
33518 H 40.059915938249354 83.91461255045144 31.627106951596886 H 0.0 **** 0.06
33519 H 39.399979885400334 85.29951969710626 30.72468469897447 H 0.0 **** 0.06
33520 H 39.23334808087859 83.65147314118263 30.073070745801317 H 0.0 **** 0.06
33521 C 70.33247924211344 81.08078255172757 74.66837908899794 C 0.0 **** -0.24
33522 H 70.01874774451568 81.81187548994475 73.92370751274893 H 0.0 **** 0.06
33523 H 69.946733136501 81.3696707184748 75.64625828429723 H 0.0 **** 0.06
33524 H 71.42067817427315 81.04126538677164 74.70327239831863 H 0.0 **** 0.06
33525 H 69.942483988325 80.09880762993652 74.39923205935571 H 0.0 **** 0.06
33526 C 108.55577562842365 26.908917610662186 79.76483023634259 C 0.0 **** -0.24
33527 H 108.12793737768101 27.430207025564997 78.90827555220235 H 0.0 **** 0.06
33528 H 109.53389756177467 26.50973528945562 79.49487258407629 H 0.0 **** 0.06
33529 H 107.89780469687457 26.091466673310762 80.05907728700649 H 0.0 **** 0.06
33530 H 108.66457022086107 27.605649363040683 80.59573619207765 H 0.0 **** 0.06
33531 C 36.046182192705885 112.41457977862368 23.100959096440988 C 0.0 **** -0.24
33532 H 36.668656196031634 112.37594115813008 22.20731583909327 H 0.0 **** 0.06
33533 H 35.438392647691046 111.51174587947412 23.160305074518988 H 0.0 **** 0.06
33534 H 35.395084016625844 113.28755491168607 23.052495442106306 H 0.0 **** 0.06
33535 H 36.68204540873086 112.48383809457687 23.984063526744137 H 0.0 **** 0.06
33536 C 1.6835821951879808 65.2569277836152 52.439058109927345 C 0.0 **** -0.24
33537 H 1.4971717750914806 64.27285366727412 52.00911693691209 H 0.0 **** 0.06
33538 H 2.2312200234846262 65.86862538811278 51.72055473298363 H 0.0 **** 0.06
33539 H 2.273656825619957 65.15085010221216 53.34917874264394 H 0.0 **** 0.06
33540 H 0.7339489916368755 65.73560040593688 52.67470474592983 H 0.0 **** 0.06
33541 C 21.2530913590559 21.41236689797482 75.52289681495009 C 0.0 **** -0.24
33542 H 21.776170230292607 21.692771236936125 76.43683663686872 H 0.0 **** 0.06
33543 H 21.92429886040786 21.52294024254188 74.67097007030023 H 0.0 **** 0.06
33544 H 20.38544099522209 22.05868272173467 75.38843916349731 H 0.0 **** 0.06
33545 H 20.925015656064907 20.37504783350859 75.59437868755785 H 0.0 **** 0.06
33546 C 24.475417619718428 51.31071121257344 24.410778719863686 C 0.0 **** -0.24
33547 H 23.868450594136853 50.41974576409228 24.245685396257386 H 0.0 **** 0.06
33548 H 24.050174790559716 52.14721482094487 23.856083860407807 H 0.0 **** 0.06
33549 H 25.492256087519756 51.124783413909256 24.06600274315906 H 0.0 **** 0.06
33550 H 24.489537070832064 51.54791065261051 25.473840858330504 H 0.0 **** 0.06
33551 C 74.39032800819024 19.117763815189022 87.01737864772119 C 0.0 **** -0.24
33552 H 74.65731860383474 18.6922915209135 87.98461670749452 H 0.0 **** 0.06
33553 H 73.38148483564007 18.803601137083152 86.74932379158264 H 0.0 **** 0.06
33554 H 75.09241576395092 18.767615745065353 86.2610373144503 H 0.0 **** 0.06
33555 H 74.43006138947896 20.204584741908548 87.07501152210153 H 0.0 **** 0.06
33556 C 117.10230415776773 20.562942383508844 100.65946892954787 C 0.0 **** -0.24
33557 H 117.44635558894613 20.753252304787708 101.67626728519375 H 0.0 **** 0.06
33558 H 116.88489697981316 21.510854908067103 100.16684725432006 H 0.0 **** 0.06
33559 H 116.19934982783731 19.95340167279694 100.68904441018438 H 0.0 **** 0.06
33560 H 117.87918133141454 20.035555516315494 100.10575954026632 H 0.0 **** 0.06
33561 C 12.15444806109906 84.50923925400156 42.92804962004874 C 0.0 **** -0.24
33562 H 11.67059320513971 84.07935936323017 42.051193948059165 H 0.0 **** 0.06
33563 H 13.23481006626588 84.50286119212305 42.78657757661347 H 0.0 **** 0.06
33564 H 11.8988097985482 83.92033261169846 43.80852967989617 H 0.0 **** 0.06
33565 H 11.811577994512646 85.53488150413187 43.06502126036756 H 0.0 **** 0.06
33566 C 112.89123636897509 104.1839207263439 71.13558112858772 C 0.0 **** -0.24
33567 H 112.11687984239452 104.95088587724388 71.1054382447756 H 0.0 **** 0.06
33568 H 112.95228642155274 103.69147232999018 70.1657257127992 H 0.0 **** 0.06
33569 H 112.64461029009016 103.44960196749378 71.90251572438626 H 0.0 **** 0.06
33570 H 113.85047714316951 104.64611426610662 71.37059484700876 H 0.0 **** 0.06
33571 C 8.415978555733659 81.07459979008061 53.99882540136079 C 0.0 **** -0.24
33572 H 8.318091661549545 82.13589680740981 54.227541238074366 H 0.0 **** 0.06
33573 H 7.743800992744639 80.50234113547683 54.63855386748122 H 0.0 **** 0.06
33574 H 9.444683166664959 80.75873452961011 54.175676059689465 H 0.0 **** 0.06
33575 H 8.15765170900545 80.90323461622654 52.95432633984882 H 0.0 **** 0.06
33576 C 50.77294317974247 1.8616766443930128 3.320031918882137 C 0.0 **** -0.24
33577 H 50.094569097683404 1.3952003595712004 2.6057290384254657 H 0.0 **** 0.06
33578 H 50.841866780779924 2.929697629111823 3.1109197463729856 H 0.0 **** 0.06
33579 H 51.75948688748656 1.4086968682790992 3.2320043162712864 H 0.0 **** 0.06
33580 H 50.3934214833302 1.712984217414764 4.331180275503755 H 0.0 **** 0.06
33581 C 3.97976074039706 85.70135567999279 26.207422608044155 C 0.0 **** -0.24
33582 H 3.1946413032680088 84.94987522229837 26.293705554543195 H 0.0 **** 0.06
33583 H 3.5299539823277186 86.67589172505467 26.011737578234005 H 0.0 **** 0.06
33584 H 4.645950564907228 85.4372064437841 25.385517209562693 H 0.0 **** 0.06
33585 H 4.547802855981132 85.74261684952313 27.136386955046852 H 0.0 **** 0.06
33586 C 109.00768775894929 78.59388418901665 64.88687221802138 C 0.0 **** -0.24
33587 H 109.06917564204139 79.3423766708556 64.09601353872768 H 0.0 **** 0.06
33588 H 109.91552738329597 77.98927280977668 64.88395389382032 H 0.0 **** 0.06
33589 H 108.14334594838596 77.95303399534384 64.71439508703776 H 0.0 **** 0.06
33590 H 108.90535731658522 79.09180532519406 65.85066789508156 H 0.0 **** 0.06
33591 C 104.12717134116264 65.33705791126866 106.89482159610446 C 0.0 **** -0.24
33592 H 104.39580545854844 65.15369435867129 107.93437369002893 H 0.0 **** 0.06
33593 H 103.89388838387325 66.39309240281878 106.7606936095799 H 0.0 **** 0.06
33594 H 103.25693979753754 64.7354258262803 106.63269182503166 H 0.0 **** 0.06
33595 H 104.96354848832283 65.064332330307 106.25057071148129 H 0.0 **** 0.06
33596 C 32.91182325097212 11.689252028376131 62.341030687145604 C 0.0 **** -0.24
33597 H 33.155171012024766 12.737855071383422 62.51321858749404 H 0.0 **** 0.06
33598 H 33.74646712087967 11.065443329765799 62.66402071443002 H 0.0 **** 0.06
33599 H 32.728281119153365 11.529365850683234 61.2784339434736 H 0.0 **** 0.06
33600 H 32.02004740266064 11.4256892522871 62.908244524415636 H 0.0 **** 0.06
33601 C 40.87995307736094 100.15348617090592 89.0468546958248 C 0.0 **** -0.24
33602 H 40.74598749936598 100.02030905920401 90.11996473789861 H 0.0 **** 0.06
33603 H 39.9131660351747 100.34356076077779 88.58047973285676 H 0.0 **** 0.06
33604 H 41.317630783977506 99.2499829900047 88.62099976837305 H 0.0 **** 0.06
33605 H 41.54393245956163 100.99864440701595 88.86626940660281 H 0.0 **** 0.06
33606 C 119.72266989263849 36.026645195292446 71.66709552249011 C 0.0 **** -0.24
33607 H 118.84230861617202 36.23888614198884 71.05931430424533 H 0.0 **** 0.06
33608 H 120.3756970609458 35.3366292855446 71.13066489833301 H 0.0 **** 0.06
33609 H 119.41346228550093 35.57630347328498 72.60918203555144 H 0.0 **** 0.06
33610 H 120.25895088150014 36.95487497689757 71.86548989884619 H 0.0 **** 0.06
33611 C 84.2219643916967 15.703956728288805 24.097619991284546 C 0.0 **** -0.24
33612 H 84.38020558653324 16.63787225983663 24.636623344172676 H 0.0 **** 0.06
33613 H 83.84588591558258 14.946697780730446 24.786081346165375 H 0.0 **** 0.06
33614 H 85.16527106210032 15.368698202799177 23.66713498034086 H 0.0 **** 0.06
33615 H 83.49440045494589 15.863341577362515 23.300626001404368 H 0.0 **** 0.06
33616 C 13.332725143473581 45.585941176156894 7.699407342962019 C 0.0 **** -0.24
33617 H 13.805480697212076 45.4330965646015 6.728354339818395 H 0.0 **** 0.06
33618 H 14.076151826218421 45.94172433711799 8.413193918394228 H 0.0 **** 0.06
33619 H 12.912137755040334 44.64367425819506 8.050319613859443 H 0.0 **** 0.06
33620 H 12.53807954354491 46.32542387115342 7.603101507923753 H 0.0 **** 0.06
33621 C 87.25692739579773 120.1542566601208 3.345335130472762 C 0.0 **** -0.24
33622 H 88.01898515555195 119.47518975140926 2.9634081573474873 H 0.0 **** 0.06
33623 H 86.88174945697253 120.77383174672596 2.530702474568983 H 0.0 **** 0.06
33624 H 87.69131656679613 120.79076890957471 4.116750310008257 H 0.0 **** 0.06
33625 H 86.43594204867648 119.57637240663186 3.771562844175264 H 0.0 **** 0.06
33626 C 72.60791427957116 75.39117724937643 82.10550571728356 C 0.0 **** -0.24
33627 H 71.62190851997411 75.82547682518637 81.93693314258542 H 0.0 **** 0.06
33628 H 72.55132401930422 74.3087007356983 81.99188241044595 H 0.0 **** 0.06
33629 H 72.94319150617628 75.63439474645153 83.11399101103132 H 0.0 **** 0.06
33630 H 73.31223105454882 75.79812394536074 81.38023585512923 H 0.0 **** 0.06
33631 C 68.56502540928258 51.1019885657941 119.10048296849895 C 0.0 **** -0.24
33632 H 68.04335468026505 50.322652522296295 118.54514874507292 H 0.0 **** 0.06
33633 H 68.11146969979163 51.211394762943826 120.08555384333854 H 0.0 **** 0.06
33634 H 68.49173844528937 52.0453911454282 118.55818803167027 H 0.0 **** 0.06
33635 H 69.61427034055293 50.82805348882707 119.2125400956128 H 0.0 **** 0.06
33636 C 96.68111572388025 39.85991826292437 94.61968188068883 C 0.0 **** -0.24
33637 H 97.73382414827154 40.14282625956551 94.60801215223759 H 0.0 **** 0.06
33638 H 96.0671256508468 40.73650801295966 94.41083078515405 H 0.0 **** 0.06
33639 H 96.4236799384586 39.459595823488826 95.60100597055268 H 0.0 **** 0.06
33640 H 96.50108878463746 39.09958157943282 93.85915206279253 H 0.0 **** 0.06
33641 C 27.387484737356203 100.48307929020837 22.368674376872207 C 0.0 **** -0.24
33642 H 26.30938744139837 100.32491312954085 22.352649852172704 H 0.0 **** 0.06
33643 H 27.6945573145112 100.78540194611645 23.370055219954338 H 0.0 **** 0.06
33644 H 27.650658666013328 101.26554140046596 21.656822801000516 H 0.0 **** 0.06
33645 H 27.894291262112773 99.55779463445367 22.095530542752556 H 0.0 **** 0.06
33646 C 98.31072985993765 10.371789560846764 114.75156622732918 C 0.0 **** -0.24
33647 H 99.3396963007539 10.584806288194926 114.46247792700325 H 0.0 **** 0.06
33648 H 98.0680710961052 10.920278484972073 115.66225212682721 H 0.0 **** 0.06
33649 H 98.1962247264114 9.302069480477456 114.929663701855 H 0.0 **** 0.06
33650 H 97.63712970766474 10.68072244253284 113.95075190993629 H 0.0 **** 0.06
33651 C 28.95393320224158 5.0041807773345965 78.91353297180973 C 0.0 **** -0.24
33652 H 28.390917507286844 4.75518701163071 79.8123291052926 H 0.0 **** 0.06
33653 H 30.01948789582029 5.012628520080085 79.142403997211 H 0.0 **** 0.06
33654 H 28.651228590575393 5.988432717854636 78.55657898620237 H 0.0 **** 0.06
33655 H 28.753377997585098 4.2602086826028085 78.14163249786148 H 0.0 **** 0.06
33656 C 10.404631281946365 119.88576847931336 55.38614212254936 C 0.0 **** -0.24
33657 H 9.3429282328201 119.90289357563466 55.13993388358321 H 0.0 **** 0.06
33658 H 10.531831592100957 120.06715462209823 56.454023835357106 H 0.0 **** 0.06
33659 H 10.92058595135029 120.66203986266171 54.8215594293608 H 0.0 **** 0.06
33660 H 10.82072143128039 118.9118921942923 55.130513423133806 H 0.0 **** 0.06
33661 C 96.31640165621587 70.8199145319119 19.201926099250088 C 0.0 **** -0.24
33662 H 97.34683986896107 70.88531940130184 18.85260472558123 H 0.0 **** 0.06
33663 H 96.06174860317816 71.72733679930656 19.75091504868044 H 0.0 **** 0.06
33664 H 96.2088918958992 69.95601544393139 19.857324534368303 H 0.0 **** 0.06
33665 H 95.64964299867776 70.71267335088595 18.345935802036564 H 0.0 **** 0.06
33666 C 113.293695512039 34.20374953453359 69.62413281294872 C 0.0 **** -0.24
33667 H 112.3338141770837 33.706642357178595 69.76718683576433 H 0.0 **** 0.06
33668 H 113.42354495969016 34.445913475700415 68.56889827647453 H 0.0 **** 0.06
33669 H 114.09722149993148 33.54133705794549 69.9467701497064 H 0.0 **** 0.06
33670 H 113.31898504433684 35.11998545432505 70.21419240218847 H 0.0 **** 0.06
33671 C 62.2497878593195 31.40284765452074 74.01703109048367 C 0.0 **** -0.24
33672 H 61.40681380046192 31.761090634101066 73.42716435545583 H 0.0 **** 0.06
33673 H 63.12362533378021 31.297214301842104 73.37338612333733 H 0.0 **** 0.06
33674 H 62.00134954269032 30.435562303269847 74.45457036895937 H 0.0 **** 0.06
33675 H 62.46626088001355 32.11597746675815 74.81182186542341 H 0.0 **** 0.06
33676 C 72.88070467783129 26.007616367129515 42.75582731539345 C 0.0 **** -0.24
33677 H 72.80450025085165 25.758353846828868 43.81360476821342 H 0.0 **** 0.06
33678 H 73.85244698930885 25.687294262129143 42.37698844912745 H 0.0 **** 0.06
33679 H 72.77728706568499 27.08521741248279 42.62810918498374 H 0.0 **** 0.06
33680 H 72.08966078179495 25.498698464949 42.204436990695314 H 0.0 **** 0.06
33681 C 40.59692095333117 116.95621280967015 112.59389309197375 C 0.0 **** -0.24
33682 H 41.27621065824985 117.43331251098448 113.30039539669588 H 0.0 **** 0.06
33683 H 40.80303516753894 115.8856984875435 112.55898986882451 H 0.0 **** 0.06
33684 H 40.741621281670646 117.38776622682806 111.60374988917339 H 0.0 **** 0.06
33685 H 39.567823918033206 117.11750121012935 112.91434972423639 H 0.0 **** 0.06
33686 C 5.026252417258306 61.68519080902333 66.51386709268593 C 0.0 **** -0.24
33687 H 3.999829976099946 61.48355854703866 66.20580607946135 H 0.0 **** 0.06
33688 H 5.658638646082608 60.838381132220924 66.24613366155702 H 0.0 **** 0.06
33689 H 5.057438768889369 61.83668079706377 67.59269669323044 H 0.0 **** 0.06
33690 H 5.386370165689684 62.582682502706966 66.00971625685344 H 0.0 **** 0.06
33691 C 25.442760258421764 7.740218305498701 117.30797772224949 C 0.0 **** -0.24
33692 H 25.470959776151155 7.8545306456921935 118.39178611283434 H 0.0 **** 0.06
33693 H 25.21160538492059 6.704820125361124 117.05792541393257 H 0.0 **** 0.06
33694 H 26.41421114415077 8.007469723654225 116.8896966010276 H 0.0 **** 0.06
33695 H 24.676565161817322 8.394457156864775 116.89324085136096 H 0.0 **** 0.06
33696 C 109.57549148470562 73.70285585560174 98.8837205665252 C 0.0 **** -0.24
33697 H 108.77115474501667 73.33471131324546 99.52151614450793 H 0.0 **** 0.06
33698 H 109.56460164189349 74.79306062723896 98.87860890212608 H 0.0 **** 0.06
33699 H 109.43030298648958 73.33275358793668 97.86896358920194 H 0.0 **** 0.06
33700 H 110.53305886204382 73.34967531153336 99.26642326050523 H 0.0 **** 0.06
33701 C 16.494825386774664 83.80344145544072 61.639607823567246 C 0.0 **** -0.24
33702 H 16.909672539230996 84.12052926508895 62.59563983600023 H 0.0 **** 0.06
33703 H 16.21642995211465 82.75075931735049 61.695896958666935 H 0.0 **** 0.06
33704 H 17.24011511027294 83.94170175999636 60.85640705855076 H 0.0 **** 0.06
33705 H 15.612153608741096 84.4007073375729 61.41084783793693 H 0.0 **** 0.06
33706 C 20.92507592246323 63.02628254013752 4.7051020305435 C 0.0 **** -0.24
33707 H 19.904458334426927 62.666614166419556 4.8372820245125325 H 0.0 **** 0.06
33708 H 20.90542033471838 64.08075047623848 4.429787378057114 H 0.0 **** 0.06
33709 H 21.41222592071992 62.45373730296097 3.9162491156846215 H 0.0 **** 0.06
33710 H 21.47617700612566 62.90294913019691 5.6379539224519135 H 0.0 **** 0.06
33711 C 15.108448353309996 2.4745731017349897 33.94624289227741 C 0.0 **** -0.24
33712 H 15.915018691851632 1.8264279146198135 34.2904133298733 H 0.0 **** 0.06
33713 H 14.793736524550983 2.165592608289387 32.949701562948746 H 0.0 **** 0.06
33714 H 15.460148732670888 3.5058111617931615 33.9143048388718 H 0.0 **** 0.06
33715 H 14.265081467483597 2.4000908162859105 34.63384226544278 H 0.0 **** 0.06
33716 C 57.43576894213393 1.2900375009167249 93.72243167591677 C 0.0 **** -0.24
33717 H 57.95630558210411 1.8812419744449613 92.969372596613 H 0.0 **** 0.06
33718 H 56.375389088493336 1.5389790657423248 93.71031950993788 H 0.0 **** 0.06
33719 H 57.85014560298387 1.509969113605166 94.70636216282915 H 0.0 **** 0.06
33720 H 57.563648699376444 0.22976824277351682 93.50404668702305 H 0.0 **** 0.06
33721 C 34.36442285396903 71.14068693011174 27.692910933038974 C 0.0 **** -0.24
33722 H 34.50585382732671 70.06649462163742 27.579485986809942 H 0.0 **** 0.06
33723 H 34.688879971468566 71.44610222466886 28.687934668865488 H 0.0 **** 0.06
33724 H 33.30919347221547 71.38415324827159 27.56408817089754 H 0.0 **** 0.06
33725 H 34.95285338526009 71.66523947818655 26.940906812544718 H 0.0 **** 0.06
33726 C 104.05306483818546 64.49525109479586 95.78932030145546 C 0.0 **** -0.24
33727 H 105.05863473809427 64.10541166055458 95.62885982333097 H 0.0 **** 0.06
33728 H 104.0818067571322 65.26975043206764 96.5549584271896 H 0.0 **** 0.06
33729 H 103.3975112352366 63.68676494492515 96.11379184183369 H 0.0 **** 0.06
33730 H 103.6750401582299 64.9173682981453 94.8584295927601 H 0.0 **** 0.06
33731 C 111.81378209752502 36.22436819836656 101.66278645114551 C 0.0 **** -0.24
33732 H 111.65305867811935 35.518962361237584 102.47887332780468 H 0.0 **** 0.06
33733 H 111.01875974945102 36.11236401151325 100.9256442323533 H 0.0 **** 0.06
33734 H 112.77641206242541 36.02380478560764 101.19260671015604 H 0.0 **** 0.06
33735 H 111.80477933885473 37.24114920143529 102.05604399731953 H 0.0 **** 0.06
33736 C 1.5627058905809577 1.5921692255691937 39.422504388445844 C 0.0 **** -0.24
33737 H 1.9113304937170028 0.5610957479297554 39.477490524262805 H 0.0 **** 0.06
33738 H 2.148804785916667 2.2104584296716894 40.10360479406009 H 0.0 **** 0.06
33739 H 0.5102052661111713 1.6356359920487762 39.70639402160046 H 0.0 **** 0.06
33740 H 1.6795251098727704 1.9620070150779725 38.40448064803971 H 0.0 **** 0.06
33741 C 31.711539739755175 3.0430260231452735 77.5529911088893 C 0.0 **** -0.24
33742 H 32.64898090547529 2.578560355148767 77.85546708654297 H 0.0 **** 0.06
33743 H 30.87648909265357 2.42884101527801 77.88973182850731 H 0.0 **** 0.06
33744 H 31.684139552392743 3.1313722697680078 76.46710608860465 H 0.0 **** 0.06
33745 H 31.636910585420097 4.034587907346179 78.00019652554411 H 0.0 **** 0.06
33746 C 11.309302953506219 38.93676689432536 94.96906497468566 C 0.0 **** -0.24
33747 H 10.611351384914471 39.181198028086015 94.16916680558717 H 0.0 **** 0.06
33748 H 11.135182154354368 39.59836728037982 95.81778755604381 H 0.0 **** 0.06
33749 H 12.331696345359461 39.064715292335165 94.61108008111009 H 0.0 **** 0.06
33750 H 11.159819879718412 37.90170020230707 95.27788358989514 H 0.0 **** 0.06
33751 C 0.6027745769610924 1.4540337579780722 26.488402835919374 C 0.0 **** -0.24
33752 H 1.398330597307897 1.3507265223797766 27.226726204180693 H 0.0 **** 0.06
33753 H 0.16661552354900522 0.47580808360555515 26.28664326080792 H 0.0 **** 0.06
33754 H 1.014558308284295 1.8660817112978183 25.5669942483201 H 0.0 **** 0.06
33755 H -0.16651500779656025 2.1228676292528554 26.873248089436743 H 0.0 **** 0.06
33756 C 79.11714675575217 91.56950906521212 67.06720807859008 C 0.0 **** -0.24
33757 H 78.38802598089922 91.91171906525955 66.3333863757914 H 0.0 **** 0.06
33758 H 79.10898877985048 92.23959575450061 67.92750364755855 H 0.0 **** 0.06
33759 H 80.11060309120188 91.56609236119226 66.61811009860301 H 0.0 **** 0.06
33760 H 78.86143409861279 90.55990270978492 67.39033843789377 H 0.0 **** 0.06
33761 C 103.17269310899417 79.16121879228268 114.31865909601677 C 0.0 **** -0.24
33762 H 103.88361523016943 79.98274913876884 114.22706875576232 H 0.0 **** 0.06
33763 H 103.69775732958925 78.212065094427 114.20620459835789 H 0.0 **** 0.06
33764 H 102.41267130764109 79.25058595803637 113.54216406964987 H 0.0 **** 0.06
33765 H 102.69736671422694 79.20024136110246 115.29912491587082 H 0.0 **** 0.06
33766 C 10.173313859226766 72.67781710224693 69.62747756618967 C 0.0 **** -0.24
33767 H 10.845041717937022 73.53559275305909 69.59937546170522 H 0.0 **** 0.06
33768 H 10.486941757860976 71.94675052190874 68.88160801774058 H 0.0 **** 0.06
33769 H 9.156288142476754 73.0050492964522 69.41074517830708 H 0.0 **** 0.06
33770 H 10.20597855529877 72.22384858929627 70.6182806633492 H 0.0 **** 0.06
33771 C 109.6679389319039 34.97415430907 20.97985057473727 C 0.0 **** -0.24
33772 H 109.64437421451211 34.07945637580633 21.60358733964881 H 0.0 **** 0.06
33773 H 109.2278924942633 34.750596279404846 20.00755014870765 H 0.0 **** 0.06
33774 H 110.70070169194153 35.29623760858152 20.846555567814107 H 0.0 **** 0.06
33775 H 109.09864929053782 35.767722232344084 21.463191395170327 H 0.0 **** 0.06
33776 C 54.96000610292521 117.33958786603779 43.44860177906543 C 0.0 **** -0.24
33777 H 54.12016103192206 116.99419895273843 44.05059332763503 H 0.0 **** 0.06
33778 H 54.58747805493082 117.76953228061376 42.51823849285253 H 0.0 **** 0.06
33779 H 55.61597296534244 116.49948663209392 43.224643263969085 H 0.0 **** 0.06
33780 H 55.515544373340084 118.0970180359098 44.00223427234101 H 0.0 **** 0.06
33781 C 93.52143731958654 37.20744063007311 7.235832514042759 C 0.0 **** -0.24
33782 H 93.1259381247196 36.24129124062847 7.5498960353143225 H 0.0 **** 0.06
33783 H 94.02380323200174 37.0995303932832 6.274351354590188 H 0.0 **** 0.06
33784 H 94.23295092021522 37.567270819134535 7.979490228766494 H 0.0 **** 0.06
33785 H 92.70302779724437 37.9210005054947 7.141189622888405 H 0.0 **** 0.06
33786 C 94.57963120955861 78.58021493110633 100.4086665981169 C 0.0 **** -0.24
33787 H 94.37968340463306 78.17852741594672 99.41542990396835 H 0.0 **** 0.06
33788 H 94.15152779503723 77.91681801012606 101.1614243460867 H 0.0 **** 0.06
33789 H 94.13028740450963 79.56886492947194 100.49709963611849 H 0.0 **** 0.06
33790 H 95.65641055856162 78.65457793821423 100.56013770459398 H 0.0 **** 0.06
33791 C 40.03232963286106 76.18821673618572 113.9573282576537 C 0.0 **** -0.24
33792 H 39.138234724905615 75.63196507167825 113.677858322079 H 0.0 **** 0.06
33793 H 39.747717859299264 77.17611539777792 114.3199637790255 H 0.0 **** 0.06
33794 H 40.680950585055236 76.29257671312934 113.08740239893692 H 0.0 **** 0.06
33795 H 40.56286255274692 75.6514641195017 114.7435944725884 H 0.0 **** 0.06
33796 C 63.389768149563274 106.80832465766886 94.58494850606337 C 0.0 **** -0.24
33797 H 62.44643255912003 106.62624957683809 95.09823854948542 H 0.0 **** 0.06
33798 H 63.201360328840984 107.3561981560205 93.66083794028975 H 0.0 **** 0.06
33799 H 63.86646201932428 105.85679305390485 94.35218549405215 H 0.0 **** 0.06
33800 H 64.04571159908733 107.39620315599586 95.22775815522056 H 0.0 **** 0.06
33801 C 51.03147847801952 111.65721042273827 99.01056441175672 C 0.0 **** -0.24
33802 H 50.26774929846604 111.61471103732951 99.78696872650042 H 0.0 **** 0.06
33803 H 50.96348349079932 110.76746372734385 98.3843642477652 H 0.0 **** 0.06
33804 H 52.01687880080971 111.70157359566176 99.47383130436026 H 0.0 **** 0.06
33805 H 50.87649880421816 112.54612632542549 98.39820421751847 H 0.0 **** 0.06
33806 C 98.17339553509396 118.85562743250762 116.37605981679292 C 0.0 **** -0.24
33807 H 98.03457381281828 119.31607835739581 117.35424671416462 H 0.0 **** 0.06
33808 H 97.30017727967731 118.25158562444955 116.13149806447524 H 0.0 **** 0.06
33809 H 99.06008090233124 118.22158219567015 116.39662329436572 H 0.0 **** 0.06
33810 H 98.30067550399832 119.63365167272447 115.62294013563195 H 0.0 **** 0.06
33811 C 111.3790906870821 99.52967180740404 113.42141539659576 C 0.0 **** -0.24
33812 H 111.09793006202264 99.14133006140548 112.44207298009317 H 0.0 **** 0.06
33813 H 111.41682188995821 98.7104594492834 114.13889052038849 H 0.0 **** 0.06
33814 H 110.64151193792867 100.26372545573508 113.74571303001687 H 0.0 **** 0.06
33815 H 112.35829300915155 100.00332555101869 113.35733710405242 H 0.0 **** 0.06
33816 C 76.15140041990887 70.695474882799 62.00582378060821 C 0.0 **** -0.24
33817 H 75.85813213517173 70.02577178387637 61.198242500919775 H 0.0 **** 0.06
33818 H 77.18244783342539 70.48790681013 62.29436134744526 H 0.0 **** 0.06
33819 H 75.49555287420807 70.54043579058421 62.86219634841652 H 0.0 **** 0.06
33820 H 76.06979815690471 71.7287899194283 61.66755572855345 H 0.0 **** 0.06
33821 C 7.898893431249736 69.21360932881214 92.33579211540103 C 0.0 **** -0.24
33822 H 7.780593367382846 69.26835257977774 91.25373833418826 H 0.0 **** 0.06
33823 H 8.656034684979197 68.46776106132799 92.58120137803189 H 0.0 **** 0.06
33824 H 6.949369517323824 68.93132818308479 92.79140144677322 H 0.0 **** 0.06
33825 H 8.209902747031858 70.18606866309159 92.71701273031158 H 0.0 **** 0.06
33826 C 62.5564663194329 58.02273543685245 115.6883938183034 C 0.0 **** -0.24
33827 H 61.49944042304932 58.120089878840965 115.44231973727236 H 0.0 **** 0.06
33828 H 62.87246276892384 56.990824307854204 115.53219890829321 H 0.0 **** 0.06
33829 H 62.71305197707207 58.2965812320813 116.73166105686883 H 0.0 **** 0.06
33830 H 63.140667806572 58.68347245260356 115.04836544854783 H 0.0 **** 0.06
33831 C 32.156314075383506 37.95779440008613 37.094281512044745 C 0.0 **** -0.24
33832 H 32.58378217996187 36.95625186209037 37.142971326061 H 0.0 **** 0.06
33833 H 31.107714363698932 37.919620428355756 37.387423896516964 H 0.0 **** 0.06
33834 H 32.23705022753046 38.33837599897299 36.07607011446919 H 0.0 **** 0.06
33835 H 32.69939436973496 38.617207673463554 37.77150604954619 H 0.0 **** 0.06
33836 C 45.62869872856447 58.099670553749945 51.308886852768865 C 0.0 **** -0.24
33837 H 46.42581069244548 58.45218328834366 50.65387658500424 H 0.0 **** 0.06
33838 H 45.93981954023849 58.204339580490426 52.34808478445564 H 0.0 **** 0.06
33839 H 45.42056143837951 57.050925187005646 51.0956752592578 H 0.0 **** 0.06
33840 H 44.728781114711836 58.691294073680524 51.1365090394072 H 0.0 **** 0.06
33841 C 14.914365001255078 36.121430225751055 72.06469332066274 C 0.0 **** -0.24
33842 H 15.955099558194036 36.09701268085493 71.743193028125 H 0.0 **** 0.06
33843 H 14.838867314854156 35.735838474194395 73.08140528999445 H 0.0 **** 0.06
33844 H 14.313425441005506 35.504674690932944 71.39581707700182 H 0.0 **** 0.06
33845 H 14.54960095000996 37.14851633049517 72.03706210685374 H 0.0 **** 0.06
33846 C 72.61387285830978 22.214277742306855 114.22448678950923 C 0.0 **** -0.24
33847 H 72.27132692977983 21.942005873687663 115.2227324696047 H 0.0 **** 0.06
33848 H 71.95167878880343 22.97347912640504 113.80816070566613 H 0.0 **** 0.06
33849 H 72.60537454688404 21.332269973731705 113.58465934066635 H 0.0 **** 0.06
33850 H 73.62785580274331 22.60991373133976 114.28466064813682 H 0.0 **** 0.06
33851 C 85.2434403298794 50.04839904310961 31.24364168641594 C 0.0 **** -0.24
33852 H 84.56416590652734 50.8322234501905 31.576833243764582 H 0.0 **** 0.06
33853 H 85.4954355850551 50.208350756273376 30.194977294040683 H 0.0 **** 0.06
33854 H 84.76147454393245 49.07712863298178 31.357259143343754 H 0.0 **** 0.06
33855 H 86.15183815158738 50.07479053572081 31.844464411700386 H 0.0 **** 0.06
33856 C 18.361573915934173 78.24725560502293 117.88721664037429 C 0.0 **** -0.24
33857 H 19.219233052413756 78.47167202066032 118.52213180035936 H 0.0 **** 0.06
33858 H 18.672448112869233 78.25291917617324 116.84265488104876 H 0.0 **** 0.06
33859 H 17.589246103947858 79.00147876506014 118.04035821988244 H 0.0 **** 0.06
33860 H 17.96737138234596 77.2643404956493 118.14397010682286 H 0.0 **** 0.06
33861 C 119.57893456303768 79.12213082407192 75.77661035217062 C 0.0 **** -0.24
33862 H 120.62853875462663 79.2286761344287 76.04851328141277 H 0.0 **** 0.06
33863 H 118.99089273259864 79.88194536102338 76.29133241435503 H 0.0 **** 0.06
33864 H 119.22673501464098 78.1317359107037 76.06700075637448 H 0.0 **** 0.06
33865 H 119.4682354212635 79.24353746799017 74.69904167292734 H 0.0 **** 0.06
33866 C 41.3542447582288 51.77020778438978 24.407147166579776 C 0.0 **** -0.24
33867 H 42.05733847362009 51.320889265944984 23.70575125125962 H 0.0 **** 0.06
33868 H 40.35652855386266 51.77480093111765 23.96956021176115 H 0.0 **** 0.06
33869 H 41.66185990470316 52.79293043236703 24.623296170596035 H 0.0 **** 0.06
33870 H 41.34316458187836 51.191195600321194 25.331126769134748 H 0.0 **** 0.06
33871 C 43.28285625549205 69.37579818374527 20.431775787681726 C 0.0 **** -0.24
33872 H 42.206293707796874 69.51433193286374 20.533803418305602 H 0.0 **** 0.06
33873 H 43.78959376595242 70.32111629557463 20.625029177778295 H 0.0 **** 0.06
33874 H 43.51121489354014 69.04150605652455 19.419423442095674 H 0.0 **** 0.06
33875 H 43.6220142471077 68.6278034629841 21.14774144991126 H 0.0 **** 0.06
33876 C 6.81802606172937 81.99244424301975 71.06137921594188 C 0.0 **** -0.24
33877 H 5.783872180328473 82.31728705734062 71.17329879619257 H 0.0 **** 0.06
33878 H 7.469848689164934 82.86487250729982 71.01564832087908 H 0.0 **** 0.06
33879 H 6.918994479287733 81.41428762474635 70.14163764379842 H 0.0 **** 0.06
33880 H 7.09801964685505 81.37237207930056 71.9124404255297 H 0.0 **** 0.06
33881 C 50.40532261517331 84.3258948874751 14.874881445793417 C 0.0 **** -0.24
33882 H 50.763430860003204 84.29932420808805 15.904877906868368 H 0.0 **** 0.06
33883 H 51.25572369894296 84.2750849710188 14.193585196092233 H 0.0 **** 0.06
33884 H 49.8581921974075 85.25259984586177 14.70481587920851 H 0.0 **** 0.06
33885 H 49.745808037140804 83.47596509242385 14.69732290183445 H 0.0 **** 0.06
33886 C 63.45607489497604 116.59805202609243 122.38709078117688 C 0.0 **** -0.24
33887 H 63.985171156206405 117.55050064296636 122.36428988431737 H 0.0 **** 0.06
33888 H 64.17436823263688 115.78684330359309 122.51347639404503 H 0.0 **** 0.06
33889 H 62.914600713665976 116.46066713446382 121.45182175090201 H 0.0 **** 0.06
33890 H 62.752173913114916 116.59346385616593 123.21941132883404 H 0.0 **** 0.06
33891 C 55.51990713081861 68.53899614008861 56.82924614042162 C 0.0 **** -0.24
33892 H 56.37793664903694 69.02185299791063 57.29591055553425 H 0.0 **** 0.06
33893 H 55.31075764071565 67.59808277191547 57.33909190503499 H 0.0 **** 0.06
33894 H 55.73898770737324 68.34363879447963 55.780301792344005 H 0.0 **** 0.06
33895 H 54.650186525267856 69.19320459914317 56.90397628433607 H 0.0 **** 0.06
33896 C 78.41833935275065 4.968194590174534 116.83492655315487 C 0.0 **** -0.24
33897 H 78.91286826721134 5.886211525421885 117.15346889943214 H 0.0 **** 0.06
33898 H 79.16426966982908 4.189898054035609 116.67767985142495 H 0.0 **** 0.06
33899 H 77.87918290487929 5.1502219865685674 115.90500370291846 H 0.0 **** 0.06
33900 H 77.7165668113247 4.647743698538903 117.6055780369826 H 0.0 **** 0.06
33901 C 3.6494505986346173 9.412103078389265 36.10955897434961 C 0.0 **** -0.24
33902 H 3.4046691620912455 8.48007425630459 36.618868748562136 H 0.0 **** 0.06
33903 H 4.713708704881874 9.429018523523382 35.87559389978397 H 0.0 **** 0.06
33904 H 3.4061190269380894 10.254049477496807 36.75778975628389 H 0.0 **** 0.06
33905 H 3.0725486211741764 9.484256431413627 35.187827395296694 H 0.0 **** 0.06
33906 C 5.850541570589996 82.12567149610794 39.67881313798085 C 0.0 **** -0.24
33907 H 6.106920323411629 81.28399011094487 40.32186017036889 H 0.0 **** 0.06
33908 H 5.840368226551277 83.04275495690942 40.26806908653478 H 0.0 **** 0.06
33909 H 4.863542430699624 81.96280382883086 39.24390389848169 H 0.0 **** 0.06
33910 H 6.588368628549205 82.21278916901306 38.88245783749082 H 0.0 **** 0.06
33911 C 78.19853424850234 122.4846096875857 17.057788854445285 C 0.0 **** -0.24
33912 H 78.4879361455383 121.5768343414795 16.527884504338317 H 0.0 **** 0.06
33913 H 77.17885215916513 122.7564303496621 16.78320162705577 H 0.0 **** 0.06
33914 H 78.87692514342802 123.2938378641194 16.7879839850248 H 0.0 **** 0.06
33915 H 78.25062439239719 122.3099855731613 18.13245353013468 H 0.0 **** 0.06
33916 C 53.87469945274315 41.32856299498461 36.676357675836584 C 0.0 **** -0.24
33917 H 54.70414343232503 41.756855267701695 37.238820585568305 H 0.0 **** 0.06
33918 H 53.55811339778126 42.02903059676851 35.903592812054 H 0.0 **** 0.06
33919 H 53.04155104044647 41.12993185933472 37.350547949654356 H 0.0 **** 0.06
33920 H 54.19561104431481 40.39559900961484 36.21171033822196 H 0.0 **** 0.06
33921 C 33.24922237932992 20.93613484874038 20.41357249148524 C 0.0 **** -0.24
33922 H 32.182767230634056 21.09655077864761 20.258484712306966 H 0.0 **** 0.06
33923 H 33.798321846694364 21.268539964042418 19.532324075205054 H 0.0 **** 0.06
33924 H 33.43695246237411 19.875578905281714 20.57935126736666 H 0.0 **** 0.06
33925 H 33.579449542068744 21.50311495831471 21.283868243469783 H 0.0 **** 0.06
33926 C 62.72471377357524 102.86706831179808 18.036840319630414 C 0.0 **** -0.24
33927 H 63.508588349094346 102.13256558696378 17.84764830675705 H 0.0 **** 0.06
33928 H 63.0091198252316 103.49156345236844 18.883415842978906 H 0.0 **** 0.06
33929 H 61.79141261254326 102.35187102593056 18.261526245214952 H 0.0 **** 0.06
33930 H 62.591623296278875 103.49083549873484 17.152056935932848 H 0.0 **** 0.06
33931 C 94.64309359169428 63.54355862345722 85.82478885820225 C 0.0 **** -0.24
33932 H 93.7105925538128 64.10868273666583 85.84210193191677 H 0.0 **** 0.06
33933 H 95.43096297124433 64.12894881411447 86.2991055360853 H 0.0 **** 0.06
33934 H 94.9192539691795 63.33159542054292 84.79212185120309 H 0.0 **** 0.06
33935 H 94.50920805969943 62.60648659230164 86.36470437979617 H 0.0 **** 0.06
33936 C 33.142553691081105 27.99873227443709 46.1033621722669 C 0.0 **** -0.24
33937 H 32.69013100866216 27.080170722259368 46.476436553459294 H 0.0 **** 0.06
33938 H 33.27013498800218 28.70131743516339 46.927445471807886 H 0.0 **** 0.06
33939 H 32.49456394018998 28.44033882390636 45.346021371896995 H 0.0 **** 0.06
33940 H 34.114032769759355 27.77279844400192 45.66382784160962 H 0.0 **** 0.06
33941 C 87.14285214512611 19.079625169410747 3.0143370570765455 C 0.0 **** -0.24
33942 H 87.61139198526155 18.82630438335474 3.9649106110533268 H 0.0 **** 0.06
33943 H 86.14768170184831 18.63539267373804 2.9703769243165254 H 0.0 **** 0.06
33944 H 87.749837985819 18.693800831898415 2.1956729833905655 H 0.0 **** 0.06
33945 H 87.06034266202596 20.16312875202229 2.9269739156976726 H 0.0 **** 0.06
33946 C 60.41847156794782 13.125923706498781 69.90207232768222 C 0.0 **** -0.24
33947 H 59.818589986243694 13.493491549925523 70.73584160672527 H 0.0 **** 0.06
33948 H 59.99316697434486 13.484030584879122 68.96425058287531 H 0.0 **** 0.06
33949 H 60.41859622462499 12.036137310445383 69.90845204344572 H 0.0 **** 0.06
33950 H 61.44042721656666 13.490913298209364 70.00163812064983 H 0.0 **** 0.06
33951 C 7.391309085101891 38.47366554103564 10.3913160834405 C 0.0 **** -0.24
33952 H 8.05813022649615 39.21875025033836 10.824888975724434 H 0.0 **** 0.06
33953 H 6.503524026079184 38.37387637059663 11.015645266395495 H 0.0 **** 0.06
33954 H 7.906775316265044 37.51377492318272 10.336536466940487 H 0.0 **** 0.06
33955 H 7.098822625760516 38.78658611354706 9.389257957933495 H 0.0 **** 0.06
33956 C 58.645484327650195 9.902299996527404 20.903912582122928 C 0.0 **** -0.24
33957 H 59.69098846470365 10.167800835658682 21.0605859165084 H 0.0 **** 0.06
33958 H 58.54885852186575 8.817276331251719 20.867757106449517 H 0.0 **** 0.06
33959 H 58.29953745691833 10.329992307189627 19.962981569386287 H 0.0 **** 0.06
33960 H 58.04413324807368 10.293501085154048 21.7239995692579 H 0.0 **** 0.06
33961 C 79.66249186030646 51.8566089340207 13.909519759711088 C 0.0 **** -0.24
33962 H 80.5661816896241 51.41913354502205 14.333555243205694 H 0.0 **** 0.06
33963 H 79.93622990306997 52.606398873735856 13.166026142098247 H 0.0 **** 0.06
33964 H 79.07981289783586 52.32632113223755 14.70183206907356 H 0.0 **** 0.06
33965 H 79.06769434248153 51.07534409431494 13.435475104355532 H 0.0 **** 0.06
33966 C 11.123981919494753 88.65936998660203 77.76772170071445 C 0.0 **** -0.24
33967 H 11.849193228053792 88.45008081974169 76.98195412727688 H 0.0 **** 0.06
33968 H 10.21420671798387 88.08624335877417 77.5847731679915 H 0.0 **** 0.06
33969 H 10.888373692222615 89.72381988621959 77.77093571357503 H 0.0 **** 0.06
33970 H 11.54333547537314 88.37679522141141 78.73341794487399 H 0.0 **** 0.06
33971 C 20.526098867512587 86.71776297540691 42.51542269900071 C 0.0 **** -0.24
33972 H 20.16162188341096 85.69943278402181 42.381795396851636 H 0.0 **** 0.06
33973 H 20.58934404702967 87.211500871596 41.54493563012929 H 0.0 **** 0.06
33974 H 21.515004142682017 86.69189774131894 42.97501553139288 H 0.0 **** 0.06
33975 H 19.84057243806265 87.26794287964373 43.159384401036476 H 0.0 **** 0.06
33976 C 97.72457354665241 27.034701949986584 65.06344138098711 C 0.0 **** -0.24
33977 H 97.29483486167874 26.426882468481836 65.8603198705604 H 0.0 **** 0.06
33978 H 97.1211103546757 27.931900164911085 64.92556219309873 H 0.0 **** 0.06
33979 H 97.74045486488015 26.46054509097209 64.13731029542564 H 0.0 **** 0.06
33980 H 98.74242700301033 27.318332681616397 65.3332934604656 H 0.0 **** 0.06
33981 C 105.48374983757654 58.01278269088186 11.78044331549988 C 0.0 **** -0.24
33982 H 105.05302058502127 59.013010131201156 11.837421999770328 H 0.0 **** 0.06
33983 H 106.56329052279673 58.090221258126064 11.646017191601615 H 0.0 **** 0.06
33984 H 105.0490753032517 57.478315060206626 10.935866783017644 H 0.0 **** 0.06
33985 H 105.2692513000265 57.47255982702586 12.70259393767769 H 0.0 **** 0.06
33986 C 70.3090929991653 14.207768775668313 31.036695517313596 C 0.0 **** -0.24
33987 H 70.1225203757406 13.919543349482808 32.07132632222035 H 0.0 **** 0.06
33988 H 71.18130340381114 13.670481306059628 30.661841656905914 H 0.0 **** 0.06
33989 H 70.49354497154272 15.280488784678909 30.98537942537876 H 0.0 **** 0.06
33990 H 69.44036131321263 13.95789116740491 30.428077790795683 H 0.0 **** 0.06
33991 C 5.558501841758101 26.917196383346663 97.06930076073908 C 0.0 **** -0.24
33992 H 5.417928631333439 27.8505930549029 96.52433934195577 H 0.0 **** 0.06
33993 H 6.569018846965122 26.545637409200026 96.89745642701016 H 0.0 **** 0.06
33994 H 4.834905614052005 26.18023382255376 96.71903531269615 H 0.0 **** 0.06
33995 H 5.411455480576706 27.092001476929113 98.13452543571273 H 0.0 **** 0.06
33996 C 62.23330903580892 119.48792638056472 115.87895117811081 C 0.0 **** -0.24
33997 H 62.010857274952336 118.45135874992064 115.62212440512212 H 0.0 **** 0.06
33998 H 61.306170237323194 120.05927487815245 115.91645630384119 H 0.0 **** 0.06
33999 H 62.89269561557585 119.91417401153467 115.12339814748162 H 0.0 **** 0.06
34000 H 62.72313552211501 119.52366834291666 116.85092264578796 H 0.0 **** 0.06
34001 C 10.643262837845512 87.65323877013566 91.69856500653046 C 0.0 **** -0.24
34002 H 10.129252984144031 86.86901051193047 91.14272866151359 H 0.0 **** 0.06
34003 H 11.718596846981015 87.56073123310173 91.54556087218924 H 0.0 **** 0.06
34004 H 10.41758264976714 87.55382997463124 92.76080769669298 H 0.0 **** 0.06
34005 H 10.308449862612449 88.62878850925807 91.34614040248027 H 0.0 **** 0.06
34006 C 84.93917485272434 57.206886565348356 17.849717630967447 C 0.0 **** -0.24
34007 H 85.643812391491 56.661870635020136 18.477964964465276 H 0.0 **** 0.06
34008 H 84.63423849327452 58.12274986468131 18.356689427268417 H 0.0 **** 0.06
34009 H 84.06346760058989 56.585945220586126 17.662918967219642 H 0.0 **** 0.06
34010 H 85.41633992962636 57.457386548353384 16.901998577044466 H 0.0 **** 0.06
34011 C 70.7358292056696 57.7899405915486 12.957178961734513 C 0.0 **** -0.24
34012 H 69.66050457468609 57.64122771381318 13.04669686640463 H 0.0 **** 0.06
34013 H 71.24346064665062 56.82856659187567 13.033999967322046 H 0.0 **** 0.06
34014 H 71.07898022008186 58.44758099176772 13.755190588683007 H 0.0 **** 0.06
34015 H 70.9601634917693 58.24393667606006 11.991229744629464 H 0.0 **** 0.06
34016 C 66.93455985298345 97.94994486051053 54.818797691060354 C 0.0 **** -0.24
34017 H 66.64935954156613 98.66467057210755 55.59055092263836 H 0.0 **** 0.06
34018 H 66.41445019394763 97.00668971306953 54.986678055166806 H 0.0 **** 0.06
34019 H 68.0115337869164 97.7840997998207 54.85758859197438 H 0.0 **** 0.06
34020 H 66.66334625801824 98.34513849816526 53.83931192760062 H 0.0 **** 0.06
34021 C 27.13972387361747 55.499092866579794 61.02801616947494 C 0.0 **** -0.24
34022 H 27.928443607482137 55.39611725332933 60.281876500088345 H 0.0 **** 0.06
34023 H 27.43470730146754 54.98194325090372 61.94110936666135 H 0.0 **** 0.06
34024 H 26.217857225703526 55.063060567969536 60.644400746631334 H 0.0 **** 0.06
34025 H 26.980305477317557 56.55503011054929 61.24435477381866 H 0.0 **** 0.06
34026 C 11.549014582237845 51.04179365562106 27.606528111169865 C 0.0 **** -0.24
34027 H 10.801303384079773 51.78341935760102 27.88913642404438 H 0.0 **** 0.06
34028 H 12.110292590718643 51.404147465082644 26.744246288857852 H 0.0 **** 0.06
34029 H 11.054163020935988 50.1051519618984 27.35120800251795 H 0.0 **** 0.06
34030 H 12.230491259244616 50.876769827834664 28.44074137743607 H 0.0 **** 0.06
34031 C 81.9196594656245 57.957163166948014 78.77145155531073 C 0.0 **** -0.24
34032 H 82.84498950405884 57.534963794777475 78.37840933425883 H 0.0 **** 0.06
34033 H 81.48940813452137 57.27282978223669 79.50279466923075 H 0.0 **** 0.06
34034 H 81.21441704869031 58.10812410872651 77.95524511148514 H 0.0 **** 0.06
34035 H 82.13232806999372 58.914109882807544 79.2502712457991 H 0.0 **** 0.06
34036 C 4.664155226038304 110.63471117629655 70.96719254342949 C 0.0 **** -0.24
34037 H 4.6273588749391905 110.53308407794515 69.88286415486917 H 0.0 **** 0.06
34038 H 5.524631375701716 110.08932829679401 71.35500622106338 H 0.0 **** 0.06
34039 H 3.7501509231253607 110.22913417654854 71.40056829133334 H 0.0 **** 0.06
34040 H 4.753228309164399 111.68939368562059 71.23012408008162 H 0.0 **** 0.06
34041 C 117.8362867542885 69.40707327500411 23.38134775821939 C 0.0 **** -0.24
34042 H 117.80200003987954 68.3353467000857 23.189956524308116 H 0.0 **** 0.06
34043 H 118.65983856021904 69.85036459944132 22.82121797385804 H 0.0 **** 0.06
34044 H 117.98532115015058 69.58103535037245 24.446967798254093 H 0.0 **** 0.06
34045 H 116.8965229528726 69.86240191927286 23.067601048712987 H 0.0 **** 0.06
34046 C 29.609204154563344 87.15685120003482 9.784842445928348 C 0.0 **** -0.24
34047 H 29.158674731889676 86.22233139378329 9.447351383623129 H 0.0 **** 0.06
34048 H 30.06841959544846 87.66401937374451 8.936420533616399 H 0.0 **** 0.06
34049 H 30.369035221625722 86.94243349401998 10.535556678186822 H 0.0 **** 0.06
34050 H 28.83902908273734 87.7948887334314 10.217733389462296 H 0.0 **** 0.06
34051 C 46.299337832773915 30.18192512009807 61.42343415015603 C 0.0 **** -0.24
34052 H 45.82443289808998 31.160645388278 61.35311997093902 H 0.0 **** 0.06
34053 H 46.13644085314178 29.770471374477424 62.42023834018863 H 0.0 **** 0.06
34054 H 47.36906988327735 30.284063337517708 61.243366933213906 H 0.0 **** 0.06
34055 H 45.86703482824635 29.513833339901126 60.679045426042364 H 0.0 **** 0.06
34056 C 62.62162972658762 7.843732391655919 116.8814775922308 C 0.0 **** -0.24
34057 H 61.66504897591516 7.370586335877675 117.09931493952027 H 0.0 **** 0.06
34058 H 62.69556734971248 8.039567315392958 115.8110906902125 H 0.0 **** 0.06
34059 H 63.4321529866343 7.1802586631689564 117.18626914998146 H 0.0 **** 0.06
34060 H 62.69560979088978 8.782925003274187 117.42930447494602 H 0.0 **** 0.06
34061 C 56.94476124197047 71.90700975410783 50.15934123404804 C 0.0 **** -0.24
34062 H 56.10954354627134 72.59655811771887 50.036578918866056 H 0.0 **** 0.06
34063 H 57.83477977593205 72.46332024043596 50.452719416431584 H 0.0 **** 0.06
34064 H 57.13139539588178 71.39092055341484 49.21828242366785 H 0.0 **** 0.06
34065 H 56.70189972670795 71.17716438500742 50.93150451925494 H 0.0 **** 0.06
34066 C 111.87406275013471 27.07738174811228 75.90311835100874 C 0.0 **** -0.24
34067 H 112.6386178743164 26.62789634224518 75.26915503759255 H 0.0 **** 0.06
34068 H 110.88687291962103 26.80614400462656 75.52810036434059 H 0.0 **** 0.06
34069 H 111.9824304921841 28.161661759261783 75.88995058910436 H 0.0 **** 0.06
34070 H 111.98820942217746 26.712602286557143 76.92339897570352 H 0.0 **** 0.06
34071 C 34.224122158870074 117.46288505969238 18.304335227581536 C 0.0 **** -0.24
34072 H 34.063876079728786 117.19861953811866 19.348946629419775 H 0.0 **** 0.06
34073 H 33.87459196045864 116.65057980626273 17.66618868625446 H 0.0 **** 0.06
34074 H 35.28752275679172 117.62943181185224 18.12994048793962 H 0.0 **** 0.06
34075 H 33.67048352122702 118.37228840515229 18.070994411656258 H 0.0 **** 0.06
34076 C 24.87481847271991 13.332209057701704 120.32991598893048 C 0.0 **** -0.24
34077 H 23.892828308041118 12.893001066821881 120.15387113163388 H 0.0 **** 0.06
34078 H 25.634192374972514 12.551578672308239 120.2850205094647 H 0.0 **** 0.06
34079 H 24.891592798540103 13.799519582327235 121.31427445918084 H 0.0 **** 0.06
34080 H 25.078169918393684 14.083188671949273 119.56713103537935 H 0.0 **** 0.06
34081 C 0.9327350952086562 100.09199202337058 113.67521616839542 C 0.0 **** -0.24
34082 H 1.3972676974093048 100.92951624679782 113.15533663145592 H 0.0 **** 0.06
34083 H 0.2527179894490672 99.5758604768316 112.99695948165044 H 0.0 **** 0.06
34084 H 0.37602911435467945 100.46309598518835 114.5355721502964 H 0.0 **** 0.06
34085 H 1.7046820103221876 99.40116686342634 114.01261300473828 H 0.0 **** 0.06
34086 C 29.813867927452634 59.57008024058581 1.0745080016816928 C 0.0 **** -0.24
34087 H 30.656992784926672 59.84876241979549 1.7062498952033422 H 0.0 **** 0.06
34088 H 30.18080632029853 59.05457268471781 0.18617507753592122 H 0.0 **** 0.06
34089 H 29.271612171247455 60.46822108349667 0.7756619605525827 H 0.0 **** 0.06
34090 H 29.146182253326856 58.91047594210869 1.6289168286271547 H 0.0 **** 0.06
34091 C 47.00316535759961 18.84799540164127 66.52518604832471 C 0.0 **** -0.24
34092 H 47.15392602398136 19.91582783415521 66.67990573543045 H 0.0 **** 0.06
34093 H 45.9575428532663 18.597910210489687 66.70988637156131 H 0.0 **** 0.06
34094 H 47.63751956811385 18.28807569265669 67.21315105174216 H 0.0 **** 0.06
34095 H 47.26248934876544 18.58840641600068 65.49902439941422 H 0.0 **** 0.06
34096 C 10.575218871919901 62.13691741226952 37.159427731512125 C 0.0 **** -0.24
34097 H 9.756462436787572 61.79632529482351 37.79370454040091 H 0.0 **** 0.06
34098 H 10.193472934959402 62.843364506646715 36.4219111510825 H 0.0 **** 0.06
34099 H 11.019038618641474 61.28188880263085 36.648665277723666 H 0.0 **** 0.06
34100 H 11.331493856447679 62.62577270023075 37.774746238304516 H 0.0 **** 0.06
34101 C 108.29982298281607 7.098731586482188 118.24439275040811 C 0.0 **** -0.24
34102 H 108.40944526480175 6.839759513888168 119.29702159993283 H 0.0 **** 0.06
34103 H 108.87904959591367 7.996645105727879 118.0293486483275 H 0.0 **** 0.06
34104 H 107.2483422401452 7.2826807925629 118.0225029154121 H 0.0 **** 0.06
34105 H 108.6621613881282 6.276435695982613 117.62794936940381 H 0.0 **** 0.06
34106 C 33.45064999743547 74.26188437541799 113.14775094852439 C 0.0 **** -0.24
34107 H 33.05312985032063 74.33107044774547 112.13464966567648 H 0.0 **** 0.06
34108 H 33.02460973553227 75.05691655199303 113.75917030100595 H 0.0 **** 0.06
34109 H 34.5354375668491 74.36484118309465 113.11883798332366 H 0.0 **** 0.06
34110 H 33.18870387072096 73.29430728558697 113.57529264686184 H 0.0 **** 0.06
34111 C 112.66766988204938 44.00477356918725 115.83267194353121 C 0.0 **** -0.24
34112 H 112.24587108522633 43.215942886516046 116.45381519629376 H 0.0 **** 0.06
34113 H 113.51541515454409 43.61049878673555 115.27109598663839 H 0.0 **** 0.06
34114 H 113.0009243010843 44.82723351119466 116.46562238896169 H 0.0 **** 0.06
34115 H 111.9090012673283 44.36632671782493 115.13877831672855 H 0.0 **** 0.06
34116 C 57.10914483791663 46.45106194901563 51.08621088135097 C 0.0 **** -0.24
34117 H 56.701874944747345 45.898499339562726 51.93324450342066 H 0.0 **** 0.06
34118 H 56.29671898903126 46.75707037457311 50.42767525545531 H 0.0 **** 0.06
34119 H 57.80335555611245 45.81534368032608 50.537253822248346 H 0.0 **** 0.06
34120 H 57.635879455481245 47.33517976328146 51.449126317241216 H 0.0 **** 0.06
34121 C 20.954749054529998 122.28899221420798 7.466816156686178 C 0.0 **** -0.24
34122 H 19.910439190757984 122.22330652926297 7.160720655902054 H 0.0 **** 0.06
34123 H 21.550821489954956 122.67768072159669 6.640402159938439 H 0.0 **** 0.06
34124 H 21.31552006581012 121.29703139433107 7.740050812522323 H 0.0 **** 0.06
34125 H 21.040452073338315 122.95643893262726 8.324191797685405 H 0.0 **** 0.06
34126 C 3.22560983463074 106.74184021834179 91.53286585136811 C 0.0 **** -0.24
34127 H 2.238158399279161 107.11930473860383 91.26564988115567 H 0.0 **** 0.06
34128 H 3.433263087290195 105.83398717278686 90.96519853263041 H 0.0 **** 0.06
34129 H 3.253348197762861 106.51846574674818 92.5986136956974 H 0.0 **** 0.06
34130 H 3.977763031132449 107.49656241266507 91.29998350032653 H 0.0 **** 0.06
34131 C 5.394609960069175 115.53171710492302 56.43068392675051 C 0.0 **** -0.24
34132 H 4.698718604837431 115.44782962411182 57.265930170629936 H 0.0 **** 0.06
34133 H 6.354503101321033 115.09886448688393 56.71311607971439 H 0.0 **** 0.06
34134 H 5.5303498041166 116.58246829528304 56.1752299372291 H 0.0 **** 0.06
34135 H 4.99340225955029 114.99656593712673 55.56970496786398 H 0.0 **** 0.06
34136 C 55.3114576710048 115.82007511299 49.439283018540266 C 0.0 **** -0.24
34137 H 54.25895215685725 116.10185728999255 49.449820132111086 H 0.0 **** 0.06
34138 H 55.92782386618799 116.7201892148382 49.421128778156 H 0.0 **** 0.06
34139 H 55.51843549791232 115.21981301947767 48.553310260852385 H 0.0 **** 0.06
34140 H 55.54104471815086 115.24061542347627 50.33317414893483 H 0.0 **** 0.06
34141 C 19.643584656531438 49.78105120562324 34.20882395844734 C 0.0 **** -0.24
34142 H 19.499640518424826 50.41401460936187 33.33266838188945 H 0.0 **** 0.06
34143 H 18.96973427931843 50.10305867316883 35.00282647399786 H 0.0 **** 0.06
34144 H 20.674530361493154 49.8638874909017 34.550607727367776 H 0.0 **** 0.06
34145 H 19.42908132542095 48.745230958068845 33.94669834091809 H 0.0 **** 0.06
34146 C 56.00578489174121 113.2279388255007 21.831577790224145 C 0.0 **** -0.24
34147 H 55.47301268817437 113.98269387076908 22.409272070467367 H 0.0 **** 0.06
34148 H 55.29145707092729 112.51875301689344 21.412786183543105 H 0.0 **** 0.06
34149 H 56.70292434126268 112.69941889609882 22.48182420836948 H 0.0 **** 0.06
34150 H 56.55621790490347 113.71013105437834 21.02447853093198 H 0.0 **** 0.06
34151 C 60.64076119164014 46.407260631330985 116.73674214401314 C 0.0 **** -0.24
34152 H 60.64396163619034 45.318505737675366 116.68337852570612 H 0.0 **** 0.06
34153 H 61.32511487554012 46.73349139694011 117.52130047469416 H 0.0 **** 0.06
34154 H 59.63411123385606 46.7568071767688 116.96367196612763 H 0.0 **** 0.06
34155 H 60.96264439824154 46.81876967243585 115.78063619643049 H 0.0 **** 0.06
34156 C 28.52321063847978 38.1551497324179 64.54806215650655 C 0.0 **** -0.24
34157 H 28.88997020829811 38.306147726786946 65.56316566504273 H 0.0 **** 0.06
34158 H 27.87057525999802 37.28189290374843 64.52377721073339 H 0.0 **** 0.06
34159 H 29.366911703334267 37.99849497374112 63.87693857980145 H 0.0 **** 0.06
34160 H 27.964235018106933 39.036189057323554 64.23040640624748 H 0.0 **** 0.06
34161 C 110.19927622789419 4.651478269626027 19.044903015160326 C 0.0 **** -0.24
34162 H 109.13891780814276 4.8392508547316595 19.21345153302437 H 0.0 **** 0.06
34163 H 110.44303850146997 4.8594439891528936 18.00281214983863 H 0.0 **** 0.06
34164 H 110.42440484344533 3.609341662140599 19.270177275298167 H 0.0 **** 0.06
34165 H 110.7900847126115 5.299471381169429 19.693021400377507 H 0.0 **** 0.06
34166 C 55.97701762829473 78.18444021610065 115.506524526608 C 0.0 **** -0.24
34167 H 55.64967201186971 79.0830793026982 114.98314244984681 H 0.0 **** 0.06
34168 H 56.08274248593537 78.40160906957058 116.56998451110397 H 0.0 **** 0.06
34169 H 56.93686358435784 77.860584431241 115.10381704628561 H 0.0 **** 0.06
34170 H 55.23957682092029 77.39425310559898 115.36802732149994 H 0.0 **** 0.06
34171 C 75.19920018275678 38.4407410969868 95.948970344538 C 0.0 **** -0.24
34172 H 74.53397801344511 38.165469287571455 95.1303079917802 H 0.0 **** 0.06
34173 H 75.20414177628746 39.523871639820015 96.06455949169813 H 0.0 **** 0.06
34174 H 76.20884061141828 38.09315810111879 95.72782005588039 H 0.0 **** 0.06
34175 H 74.85037979585255 37.97702461870921 96.87182597221314 H 0.0 **** 0.06
34176 C 113.96792716958613 86.82688991327723 69.61809571575378 C 0.0 **** -0.24
34177 H 113.62267629567174 87.85199134995275 69.48131471120962 H 0.0 **** 0.06
34178 H 114.2584880181738 86.41035019902813 68.65317486978898 H 0.0 **** 0.06
34179 H 113.1654412175692 86.22721946618003 70.04561844504042 H 0.0 **** 0.06
34180 H 114.8252143980675 86.81951255719775 70.2906329021414 H 0.0 **** 0.06
34181 C 73.38080687707046 15.010563341163152 121.48256555475109 C 0.0 **** -0.24
34182 H 72.32849197982699 15.231210564898095 121.30064154032591 H 0.0 **** 0.06
34183 H 73.49478363545066 13.951357561135065 121.71264929811142 H 0.0 **** 0.06
34184 H 73.73625224678739 15.606482193274111 122.32319891194668 H 0.0 **** 0.06
34185 H 73.961001093182 15.2540032919504 120.59273424039344 H 0.0 **** 0.06
34186 C 67.55751288807829 42.03161302902228 65.21711594901478 C 0.0 **** -0.24
34187 H 66.86513592655524 41.262980240987844 64.87202324482695 H 0.0 **** 0.06
34188 H 67.50469424684275 42.892837074398415 64.55140321828071 H 0.0 **** 0.06
34189 H 68.57129672223269 41.632361979934814 65.21723437054999 H 0.0 **** 0.06
34190 H 67.28635638427886 42.33618755039666 66.22804010503205 H 0.0 **** 0.06
34191 C 116.81498401668222 22.966578710308937 72.7012740933406 C 0.0 **** -0.24
34192 H 116.89528148936859 21.974536726639172 73.14743351994974 H 0.0 **** 0.06
34193 H 115.78161762154988 23.148098200911534 72.4049622229355 H 0.0 **** 0.06
34194 H 117.4608354504169 23.025101715054973 71.8260375377235 H 0.0 **** 0.06
34195 H 117.12155651437507 23.717826818208977 73.42949503819989 H 0.0 **** 0.06
34196 C 61.198215157886544 4.910747527443107 33.4490128424234 C 0.0 **** -0.24
34197 H 60.731337889983514 5.83427844153789 33.1073179920693 H 0.0 **** 0.06
34198 H 60.596437264574455 4.059528857463249 33.13045001171062 H 0.0 **** 0.06
34199 H 61.26747035666448 4.9197844423652555 34.537107149489486 H 0.0 **** 0.06
34200 H 62.198155628792456 4.829088150038501 33.022792317332744 H 0.0 **** 0.06
34201 C 58.1510873892216 111.95418373876845 101.50782167725083 C 0.0 **** -0.24
34202 H 57.60938966261176 111.75182343670912 100.5836155125954 H 0.0 **** 0.06
34203 H 59.19673534145301 112.15931756964278 101.27847347431228 H 0.0 **** 0.06
34204 H 58.08672000944185 111.08622682978518 102.16379405198683 H 0.0 **** 0.06
34205 H 57.711031131622576 112.81941737252708 102.00452423190896 H 0.0 **** 0.06
34206 C 46.40328252094144 84.05900974346261 31.792842986865466 C 0.0 **** -0.24
34207 H 46.93187510864534 84.96306427096681 32.096351566345355 H 0.0 **** 0.06
34208 H 45.58194571808263 83.87033487331493 32.48452340963862 H 0.0 **** 0.06
34209 H 47.0913887991361 83.2138225186925 31.806125639692276 H 0.0 **** 0.06
34210 H 46.007544600773976 84.19039079522378 30.786210682867896 H 0.0 **** 0.06
34211 C 80.98997643791012 7.328963592282577 39.80732304803928 C 0.0 **** -0.24
34212 H 80.47800784738126 8.121138595575474 39.26152177929839 H 0.0 **** 0.06
34213 H 80.27248087260736 6.800362249376576 40.436922923382895 H 0.0 **** 0.06
34214 H 81.77099446351158 7.762996788210785 40.431507436526374 H 0.0 **** 0.06
34215 H 81.43614248840314 6.629408857746114 39.099426700454615 H 0.0 **** 0.06
34216 C 83.08012633464915 70.59806146528229 44.36996936626309 C 0.0 **** -0.24
34217 H 82.37211759398787 70.6503604486494 45.197555986273414 H 0.0 **** 0.06
34218 H 82.62309926839606 71.0173707083413 43.47352463293504 H 0.0 **** 0.06
34219 H 83.35054965139335 69.55763343581833 44.18903045773419 H 0.0 **** 0.06
34220 H 83.97564746576194 71.16749763845954 44.621714396785535 H 0.0 **** 0.06
34221 C 6.0668958133205315 79.64558470298056 18.777331124677232 C 0.0 **** -0.24
34222 H 6.867020163683755 79.97628214320176 18.11567538781628 H 0.0 **** 0.06
34223 H 5.675407079545302 78.69127597028395 18.424605227092826 H 0.0 **** 0.06
34224 H 5.26833420724649 80.38784885783093 18.779187436157997 H 0.0 **** 0.06
34225 H 6.456347965319573 79.5287022130392 19.78857522252693 H 0.0 **** 0.06
34226 C 32.84699459934419 78.28854323878247 106.1769227881014 C 0.0 **** -0.24
34227 H 32.887163071113605 78.52804468075323 105.1140391089827 H 0.0 **** 0.06
34228 H 32.844330781546596 77.2053348201261 106.30485497583601 H 0.0 **** 0.06
34229 H 31.938472444517835 78.7075380083532 106.60899914906938 H 0.0 **** 0.06
34230 H 33.71744160395727 78.71156184484798 106.67845384715181 H 0.0 **** 0.06
34231 C 116.04785598388762 106.66889297081204 116.69000817620513 C 0.0 **** -0.24
34232 H 115.52071121078639 106.4266405278924 117.6123038017074 H 0.0 **** 0.06
34233 H 116.88759564773243 105.98534966244324 116.56148573948506 H 0.0 **** 0.06
34234 H 116.41599004929705 107.69294263098752 116.74090669789148 H 0.0 **** 0.06
34235 H 115.36621358695723 106.5692138389191 115.84570325221068 H 0.0 **** 0.06
34236 C 97.59240449642212 76.0425080493651 93.74817470055407 C 0.0 **** -0.24
34237 H 98.605031963101 75.65203879019282 93.84289233827047 H 0.0 **** 0.06
34238 H 97.62914936233398 77.1272412580928 93.64993629416446 H 0.0 **** 0.06
34239 H 97.01595617973877 75.7768807044676 94.63397634152807 H 0.0 **** 0.06
34240 H 97.11861740702747 75.61322240467905 92.864980612768 H 0.0 **** 0.06
34241 C 112.3706332071968 119.85216904516949 92.38271001105494 C 0.0 **** -0.24
34242 H 113.40026116859916 119.9645918697571 92.72243564062867 H 0.0 **** 0.06
34243 H 112.35085003761525 119.81722363812577 91.29291294790733 H 0.0 **** 0.06
34244 H 111.77868008576311 120.69903388885808 92.73050390481046 H 0.0 **** 0.06
34245 H 111.95422939740004 118.92813487346388 92.78415597484252 H 0.0 **** 0.06
34246 C 34.2984353397496 76.99632493703362 82.9298715692583 C 0.0 **** -0.24
34247 H 34.26073436217271 77.95666491126045 83.4429600940584 H 0.0 **** 0.06
34248 H 35.118173393366504 77.000411245006 82.21085070488539 H 0.0 **** 0.06
34249 H 33.356595061577536 76.82548047749836 82.40689042002734 H 0.0 **** 0.06
34250 H 34.457217533707194 76.2005273516784 83.65856534921286 H 0.0 **** 0.06
34251 C 28.423927662158697 52.20683060443656 62.67135142279269 C 0.0 **** -0.24
34252 H 27.743443367091643 51.51903307507278 63.17229328994055 H 0.0 **** 0.06
34253 H 27.901405239647026 52.70626349185688 61.85609184273351 H 0.0 **** 0.06
34254 H 29.27396812949756 51.65102644437884 62.27332608522429 H 0.0 **** 0.06
34255 H 28.779274208222915 52.95034396554089 63.38567061740793 H 0.0 **** 0.06
34256 C 31.106077057685354 55.620308911191216 5.955848576399404 C 0.0 **** -0.24
34257 H 31.254944736065738 54.56888850290488 5.708574018816506 H 0.0 **** 0.06
34258 H 31.895811439141255 56.21665525967421 5.4971974499642045 H 0.0 **** 0.06
34259 H 31.1370348410706 55.74689126463062 7.0380642002219815 H 0.0 **** 0.06
34260 H 30.136974838185665 55.94791321967088 5.579502412167358 H 0.0 **** 0.06
34261 C 67.01624364448577 89.00034332328832 100.17181567914031 C 0.0 **** -0.24
34262 H 66.20976468740412 88.33046336892386 100.46947596870035 H 0.0 **** 0.06
34263 H 67.94736830204505 88.4380768878734 100.10090404185476 H 0.0 **** 0.06
34264 H 67.12360554327313 89.7909963842281 100.91428539494655 H 0.0 **** 0.06
34265 H 66.78282289270936 89.441870653389 99.20264152890971 H 0.0 **** 0.06
34266 C 82.02386502410124 88.69234418839721 89.20253268003484 C 0.0 **** -0.24
34267 H 81.78307813621677 89.09416205215362 88.21802709820395 H 0.0 **** 0.06
34268 H 81.10380060403983 88.5503872629759 89.77121267154419 H 0.0 **** 0.06
34269 H 82.67359337153314 89.39049256063694 89.73024571803938 H 0.0 **** 0.06
34270 H 82.53333813860453 87.73553004156454 89.08972334836616 H 0.0 **** 0.06
34271 C 90.44269971519748 79.13022575454056 47.700396741044834 C 0.0 **** -0.24
34272 H 89.91419893570759 78.77920721989281 46.813960587498265 H 0.0 **** 0.06
34273 H 89.83560872411334 78.93549552511953 48.58510904243827 H 0.0 **** 0.06
34274 H 90.62575351961169 80.20192108110015 47.61414920534139 H 0.0 **** 0.06
34275 H 91.39308638700209 78.60487404578814 47.78850362775284 H 0.0 **** 0.06
34276 C 80.72505039567457 77.65087886104999 24.28742076842491 C 0.0 **** -0.24
34277 H 81.59707233119082 77.57438642782853 24.936717131587557 H 0.0 **** 0.06
34278 H 80.43789178923106 76.65606455312559 23.946499120516307 H 0.0 **** 0.06
34279 H 80.96612661395616 78.27530793492929 23.426624760240543 H 0.0 **** 0.06
34280 H 79.89875998682285 78.09897539830502 24.84046765186531 H 0.0 **** 0.06
34281 C 98.45252325111284 49.00139980322123 29.291903272093293 C 0.0 **** -0.24
34282 H 97.71190402064738 48.48983511378307 29.906697430995393 H 0.0 **** 0.06
34283 H 97.96005945042148 49.76565960222888 28.690323255341525 H 0.0 **** 0.06
34284 H 98.93948279476086 48.28028331296983 28.635418283732918 H 0.0 **** 0.06
34285 H 99.19842137379564 49.46881983388121 29.934201174238126 H 0.0 **** 0.06
34286 C 80.46048519721862 96.85601410383731 80.60283902326046 C 0.0 **** -0.24
34287 H 80.76577252865559 96.2931903917528 79.7206183855433 H 0.0 **** 0.06
34288 H 79.99036540428077 97.78902638531 80.29301397683142 H 0.0 **** 0.06
34289 H 81.33623304512167 97.07505343512392 81.21368074080695 H 0.0 **** 0.06
34290 H 79.75148993351144 96.26497249265691 81.18230398449384 H 0.0 **** 0.06
34291 C 114.31556350458084 58.54376780213926 59.58670476368138 C 0.0 **** -0.24
34292 H 114.45501189224066 59.51722207008817 59.115293976304656 H 0.0 **** 0.06
34293 H 114.13749295821572 58.67996933915191 60.65371750421127 H 0.0 **** 0.06
34294 H 115.2106428116939 57.939756693782726 59.44200963938749 H 0.0 **** 0.06
34295 H 113.46025416613648 58.04106833045438 59.13570445176333 H 0.0 **** 0.06
34296 C 70.15461225534165 19.34955186197859 116.51561564160312 C 0.0 **** -0.24
34297 H 71.0879296714754 19.76289827118215 116.89885775216652 H 0.0 **** 0.06
34298 H 69.31684171811582 19.9381230159958 116.8915740664527 H 0.0 **** 0.06
34299 H 70.05204309684984 18.316491155810667 116.84873019770765 H 0.0 **** 0.06
34300 H 70.16272851197559 19.382369817835738 115.42646266886973 H 0.0 **** 0.06
34301 C 86.73397398484505 80.76849396683713 59.70303256741914 C 0.0 **** -0.24
34302 H 86.04225989582051 80.44272539148506 58.92578703544683 H 0.0 **** 0.06
34303 H 87.4534808322521 79.97383283443827 59.9042657595802 H 0.0 **** 0.06
34304 H 86.17772132349685 80.99444619906211 60.61183375544704 H 0.0 **** 0.06
34305 H 87.26206338475947 81.66044775650727 59.367695296002864 H 0.0 **** 0.06
34306 C 105.74591484396018 57.36416381814351 122.13427038660211 C 0.0 **** -0.24
34307 H 106.01884208179041 57.369142457116425 121.0783001466015 H 0.0 **** 0.06
34308 H 106.45993616467254 57.96591879775366 122.69653511588422 H 0.0 **** 0.06
34309 H 105.76049990523154 56.339833949790545 122.50716145476153 H 0.0 **** 0.06
34310 H 104.7461273375526 57.7801899876128 122.25253794797605 H 0.0 **** 0.06
34311 C 75.85738071136387 81.078610656418 104.55788543893846 C 0.0 **** -0.24
34312 H 75.73525924634083 81.62297375673816 105.4951001294803 H 0.0 **** 0.06
34313 H 76.43287761253572 81.68534560317062 103.85816249615539 H 0.0 **** 0.06
34314 H 74.87798842740057 80.8628076267754 104.13274093644446 H 0.0 **** 0.06
34315 H 76.38508999346135 80.14373613680809 104.74797937141105 H 0.0 **** 0.06
34316 C 53.8905925436978 18.792513551604316 104.0578849957314 C 0.0 **** -0.24
34317 H 54.04250259314902 17.720486678622223 103.92756647700656 H 0.0 **** 0.06
34318 H 54.7193322618045 19.334763061002178 103.60197808494678 H 0.0 **** 0.06
34319 H 53.843962299184646 19.025243292560674 105.12149328318105 H 0.0 **** 0.06
34320 H 52.95707152116615 19.086423995078235 103.57954808512841 H 0.0 **** 0.06
34321 C 39.44195891390129 97.00901845669691 107.34870822859784 C 0.0 **** -0.24
34322 H 38.89631659008583 97.10416718270318 106.4107219708452 H 0.0 **** 0.06
34323 H 40.40966049974796 97.50228885540966 107.25782325098879 H 0.0 **** 0.06
34324 H 39.591431263500795 95.95356389048041 107.57640497508098 H 0.0 **** 0.06
34325 H 38.869517264930664 97.47571521529528 108.15131704412073 H 0.0 **** 0.06
34326 C 95.33400370255092 12.097788998153277 84.38226913234126 C 0.0 **** -0.24
34327 H 94.43636323604582 11.901777248122414 83.79475897485833 H 0.0 **** 0.06
34328 H 95.14754212006824 11.84342267962866 85.42561326528283 H 0.0 **** 0.06
34329 H 95.59364591719347 13.15290730522139 84.30612244709738 H 0.0 **** 0.06
34330 H 96.15533908367607 11.491328451188735 84.00205358601573 H 0.0 **** 0.06
34331 C 36.68487678775119 102.2468804294281 2.5680021082307576 C 0.0 **** -0.24
34332 H 36.226561024217496 102.08134675793559 3.5431007714773273 H 0.0 **** 0.06
34333 H 37.429128689762216 101.47314189207694 2.3803724364278764 H 0.0 **** 0.06
34334 H 37.16350552270206 103.22552372989523 2.5530389805963694 H 0.0 **** 0.06
34335 H 35.91669958972298 102.20653467819051 1.7954523252282684 H 0.0 **** 0.06
34336 C 39.72824925134725 110.41527038225306 107.54785881823801 C 0.0 **** -0.24
34337 H 38.762703110830614 110.18028492509339 107.10110994271125 H 0.0 **** 0.06
34338 H 39.89681518648189 111.49134732723515 107.50323733539707 H 0.0 **** 0.06
34339 H 40.517185463830856 109.90045960527024 106.99816460342444 H 0.0 **** 0.06
34340 H 39.73699648450234 110.08705321426712 108.58759827978724 H 0.0 **** 0.06
34341 C 105.8736788078183 45.50246906587904 111.83287053798719 C 0.0 **** -0.24
34342 H 105.09055341920967 45.97122690247784 112.4276291197512 H 0.0 **** 0.06
34343 H 106.02883022227306 46.075898809304476 110.91904643587924 H 0.0 **** 0.06
34344 H 105.5764695757299 44.485245038940604 111.57732583345489 H 0.0 **** 0.06
34345 H 106.79926735442336 45.47615066686308 112.4074950113856 H 0.0 **** 0.06
34346 C 50.86239493354131 55.97277044299187 35.333705822741706 C 0.0 **** -0.24
34347 H 50.79446335268494 56.741964431768395 36.10249772777826 H 0.0 **** 0.06
34348 H 51.4182748583483 56.360466689990346 34.47928360409378 H 0.0 **** 0.06
34349 H 49.86040458124103 55.68714276588503 35.015730644942494 H 0.0 **** 0.06
34350 H 51.378617383978536 55.10102019306305 35.737401357755346 H 0.0 **** 0.06
34351 C 47.247872037941384 27.46806240130624 72.64254348143666 C 0.0 **** -0.24
34352 H 48.02552965647415 28.05615237178128 73.1295618862118 H 0.0 **** 0.06
34353 H 47.28373428110194 26.442914048626932 73.01122340458488 H 0.0 **** 0.06
34354 H 47.41208641374932 27.472119867929848 71.56424602978433 H 0.0 **** 0.06
34355 H 46.27236917467003 27.901278914968998 72.86314886810246 H 0.0 **** 0.06
34356 C 115.18137573334536 21.617375844829382 83.04613730262804 C 0.0 **** -0.24
34357 H 115.08917012406741 22.627871149465022 82.64726824233236 H 0.0 **** 0.06
34358 H 116.22483798480664 21.30385607312388 83.00335812355308 H 0.0 **** 0.06
34359 H 114.57198256556363 20.935378442643184 82.45302125263422 H 0.0 **** 0.06
34360 H 114.83990991833716 21.60358744171367 84.0815546819577 H 0.0 **** 0.06
34361 C 74.9480726235011 5.5860575454922525 9.972152293836587 C 0.0 **** -0.24
34362 H 73.97734961100582 5.689176738370719 10.457360917790567 H 0.0 **** 0.06
34363 H 75.50337177075005 4.773268945247484 10.441063500433813 H 0.0 **** 0.06
34364 H 75.50672000411942 6.516046823380634 10.075598666835816 H 0.0 **** 0.06
34365 H 74.80284487825688 5.3647461218610815 8.91457330887502 H 0.0 **** 0.06
34366 C 52.77207834594924 81.1680940717007 61.90549267844057 C 0.0 **** -0.24
34367 H 53.158009637112 81.89499840065986 61.189879418121535 H 0.0 **** 0.06
34368 H 52.69563847125795 80.19201505224257 61.425748103400934 H 0.0 **** 0.06
34369 H 51.78625651522344 81.48406307467232 62.24730265389266 H 0.0 **** 0.06
34370 H 53.44780631430683 81.10283228803476 62.75752769575459 H 0.0 **** 0.06
34371 C 87.77523491986267 109.9454304382607 51.28995379289563 C 0.0 **** -0.24
34372 H 87.923590902406 110.80438252408749 51.94446349546317 H 0.0 **** 0.06
34373 H 88.44528820879407 110.02128280168597 50.43290000062228 H 0.0 **** 0.06
34374 H 86.74229810961745 109.92783911771164 50.94263951293678 H 0.0 **** 0.06
34375 H 87.98900803349372 109.02884721389921 51.83999687555797 H 0.0 **** 0.06
34376 C 43.8069405312567 115.8416054493766 17.325258888427012 C 0.0 **** -0.24
34377 H 43.682657744193136 115.51554473340249 16.292268390880793 H 0.0 **** 0.06
34378 H 43.29132872928808 115.14654010454896 17.98899893109105 H 0.0 **** 0.06
34379 H 43.38623018330989 116.84005629395543 17.44509983366966 H 0.0 **** 0.06
34380 H 44.8680477494776 115.86210368608675 17.57457484558241 H 0.0 **** 0.06
34381 C 15.044903493170551 49.468377745028874 109.255426563507 C 0.0 **** -0.24
34382 H 15.98879885565242 49.75364406852225 108.79019561567861 H 0.0 **** 0.06
34383 H 15.214054881341795 48.636951403674175 109.93974971832998 H 0.0 **** 0.06
34384 H 14.337465069986195 49.165557374519494 108.48266340562745 H 0.0 **** 0.06
34385 H 14.640363009868025 50.316550125498566 109.80606313729655 H 0.0 **** 0.06
34386 C 104.42127303604721 19.077673633159762 90.06440462241761 C 0.0 **** -0.24
34387 H 105.46449868982009 18.835113058224362 89.858210977423 H 0.0 **** 0.06
34388 H 104.3034710232518 20.16052985974275 90.11199917920396 H 0.0 **** 0.06
34389 H 104.12790187379599 18.637327690968995 91.01658362803872 H 0.0 **** 0.06
34390 H 103.79214806649148 18.67855835377266 89.2695078797309 H 0.0 **** 0.06
34391 C 78.31929818104072 62.07585889753283 65.55053204413596 C 0.0 **** -0.24
34392 H 79.06313657119154 62.87219428766719 65.53924065730428 H 0.0 **** 0.06
34393 H 77.47612631198797 62.37517000980416 66.17308259310687 H 0.0 **** 0.06
34394 H 78.76549609000998 61.16730687559042 65.95535891774648 H 0.0 **** 0.06
34395 H 77.97289240351057 61.88853355503658 64.533587873062 H 0.0 **** 0.06
34396 C 70.10659050474743 97.18001616087622 57.608984539669855 C 0.0 **** -0.24
34397 H 70.59076628965471 97.96259341942132 58.19227667582562 H 0.0 **** 0.06
34398 H 69.05000177476549 97.41984085627544 57.48577920530827 H 0.0 **** 0.06
34399 H 70.20530283020653 96.22637590517343 58.12615587223868 H 0.0 **** 0.06
34400 H 70.58019784955397 97.11274174841165 56.629122603895446 H 0.0 **** 0.06
34401 C 87.96468415796431 65.562999908639 81.69783024745186 C 0.0 **** -0.24
34402 H 86.93796468327542 65.20128852161699 81.75722843716915 H 0.0 **** 0.06
34403 H 87.96251900417573 66.65175855637958 81.64372793042742 H 0.0 **** 0.06
34404 H 88.44233125382473 65.15410739927691 80.80765988357496 H 0.0 **** 0.06
34405 H 88.51419019946835 65.24457176579506 82.58409307358579 H 0.0 **** 0.06
34406 C 42.746227971676774 7.313092174299982 101.06748885586049 C 0.0 **** -0.24
34407 H 43.53601905699216 7.9918490111273 100.74506623604609 H 0.0 **** 0.06
34408 H 42.94855910498532 6.312632324052714 100.68345057818613 H 0.0 **** 0.06
34409 H 41.7884199517886 7.663210253725396 100.68480731305996 H 0.0 **** 0.06
34410 H 42.71482563606699 7.285118575742729 102.15720283843973 H 0.0 **** 0.06
34411 C 106.91852109396035 62.05166962050248 71.18073593270151 C 0.0 **** -0.24
34412 H 106.71974830003319 61.36163615978097 72.00169355251111 H 0.0 **** 0.06
34413 H 107.96084031590698 62.36619491804532 71.21562892284953 H 0.0 **** 0.06
34414 H 106.27166031792314 62.923787418046885 71.27546083204419 H 0.0 **** 0.06
34415 H 106.71975025737271 61.554188653527376 70.23186137311976 H 0.0 **** 0.06
34416 C 22.244848833805207 24.241457806524053 115.32796424971647 C 0.0 **** -0.24
34417 H 22.300791484298372 25.320066595808058 115.18051379064758 H 0.0 **** 0.06
34418 H 23.038033846477987 23.75609791887338 114.75750429693149 H 0.0 **** 0.06
34419 H 21.276382870469035 23.878204952924328 114.98545421969891 H 0.0 **** 0.06
34420 H 22.366123434828467 24.012796912459265 116.38681353017478 H 0.0 **** 0.06
34421 C 103.22317669750663 63.769524221870334 81.16958066075631 C 0.0 **** -0.24
34422 H 102.6618553746012 63.49690799375727 82.06371875817362 H 0.0 **** 0.06
34423 H 103.74013539887034 64.71349528183899 81.33972301924587 H 0.0 **** 0.06
34424 H 102.53809538772765 63.87492252083414 80.32926474294342 H 0.0 **** 0.06
34425 H 103.95231205641306 62.98951658258681 80.94812887095608 H 0.0 **** 0.06
34426 C 64.1033643955553 115.29646977533127 104.74929631477238 C 0.0 **** -0.24
34427 H 63.73532365250574 116.01575517340117 104.01729516228568 H 0.0 **** 0.06
34428 H 63.3589390906277 115.16581459137069 105.53525201675825 H 0.0 **** 0.06
34429 H 65.03160624603001 115.66475266417177 105.18629393164784 H 0.0 **** 0.06
34430 H 64.28575272369065 114.34066748657025 104.25897339701078 H 0.0 **** 0.06
34431 C 19.285201280963378 59.835828300936264 83.49716216661324 C 0.0 **** -0.24
34432 H 19.36406373180145 59.700465313978135 84.57640160779192 H 0.0 **** 0.06
34433 H 18.259498491133655 59.64687188648005 83.18117266893259 H 0.0 **** 0.06
34434 H 19.955324545066674 59.139092758374055 82.9942322638289 H 0.0 **** 0.06
34435 H 19.562638369490088 60.85819702618536 83.23944136811431 H 0.0 **** 0.06
34436 C 18.495882806341882 62.54424423566178 46.323842378926614 C 0.0 **** -0.24
34437 H 18.1817447045064 61.51926031100149 46.518766184440466 H 0.0 **** 0.06
34438 H 17.61731956342352 63.182750678393916 46.229941924101894 H 0.0 **** 0.06
34439 H 19.07044046499388 62.577808080174236 45.398900748535425 H 0.0 **** 0.06
34440 H 19.11468182320587 62.89735816383248 47.148997807177324 H 0.0 **** 0.06
34441 C 55.55872010124711 120.25811094182691 71.2004727373839 C 0.0 **** -0.24
34442 H 56.63300960321197 120.27537008242967 71.38378479755426 H 0.0 **** 0.06
34443 H 55.24053039087584 121.22686386360283 70.8155880786033 H 0.0 **** 0.06
34444 H 55.03501062244295 120.04761075144572 72.13314266850236 H 0.0 **** 0.06
34445 H 55.32706142869191 119.48275498216566 70.47093763434 H 0.0 **** 0.06
34446 C 21.874153500504633 56.21078515157254 4.7187874538440155 C 0.0 **** -0.24
34447 H 21.16201580205569 55.87002382743813 3.9675646378634326 H 0.0 **** 0.06
34448 H 22.855387285922802 55.785134474884586 4.50673808030389 H 0.0 **** 0.06
34449 H 21.542675505320517 55.888599133520074 5.70542750170199 H 0.0 **** 0.06
34450 H 21.93704170536415 57.298287762887554 4.693287910736316 H 0.0 **** 0.06
34451 C 66.65802883908157 37.047020816081215 23.048987060446308 C 0.0 **** -0.24
34452 H 66.9321279413152 37.94307944782531 23.606722478363437 H 0.0 **** 0.06
34453 H 67.39692100535257 36.265761423549975 23.23108685302296 H 0.0 **** 0.06
34454 H 66.6275823735455 37.27704062279287 21.984618725135817 H 0.0 **** 0.06
34455 H 65.67611318687509 36.70264637464061 23.37507152763618 H 0.0 **** 0.06
34456 C 5.249662250647333 14.646031075502464 71.07090517396048 C 0.0 **** -0.24
34457 H 6.277936045104184 14.299885935273608 71.16794428934648 H 0.0 **** 0.06
34458 H 4.868070070295033 14.932221369113591 72.05171133755539 H 0.0 **** 0.06
34459 H 4.6341075174293564 13.845389938521237 70.66066588230814 H 0.0 **** 0.06
34460 H 5.217306687748817 15.507216156393781 70.40292048329317 H 0.0 **** 0.06
34461 C 54.59841413537683 32.93006416899584 1.5944427222831479 C 0.0 **** -0.24
34462 H 55.60757438593171 32.51876921393651 1.5940579854014771 H 0.0 **** 0.06
34463 H 54.0934199766659 32.65410807451897 2.5207522412471945 H 0.0 **** 0.06
34464 H 54.042429100765986 32.531308494494766 0.7452467809085022 H 0.0 **** 0.06
34465 H 54.648939264966145 34.01635103941538 1.5182115529448623 H 0.0 **** 0.06
34466 C 100.7854807276318 96.00625337681291 18.096205444549796 C 0.0 **** -0.24
34467 H 99.96225227841074 96.49624567825066 18.616934396659303 H 0.0 **** 0.06
34468 H 100.42755060980713 95.6046074168745 17.147326222774595 H 0.0 **** 0.06
34469 H 101.17312387888134 95.19402983263342 18.711767687212443 H 0.0 **** 0.06
34470 H 101.57899614342799 96.73013057949305 17.908793471553025 H 0.0 **** 0.06
34471 C 111.04643651356463 103.09749437384176 14.972381202567533 C 0.0 **** -0.24
34472 H 110.56713724602847 102.60621214325812 15.820124797745706 H 0.0 **** 0.06
34473 H 110.86487820996149 102.51652963920634 14.067268624916153 H 0.0 **** 0.06
34474 H 112.1186744073928 103.1663404291196 15.150833289532642 H 0.0 **** 0.06
34475 H 110.63216283120965 104.0985722819403 14.851780707189704 H 0.0 **** 0.06
34476 C 104.70033682059363 36.90991083071364 26.23385704321349 C 0.0 **** -0.24
34477 H 104.80147976561403 37.03233897703578 27.312702092192808 H 0.0 **** 0.06
34478 H 105.08763280933778 35.932768298416846 25.94254877893104 H 0.0 **** 0.06
34479 H 105.26534298391937 37.69162362504872 25.72586561990701 H 0.0 **** 0.06
34480 H 103.64911482325624 36.98269191042789 25.957141863017284 H 0.0 **** 0.06
34481 C 36.319790945415036 7.208267834963749 115.8430251095412 C 0.0 **** -0.24
34482 H 35.302157967643836 6.995934194791516 115.51334989624348 H 0.0 **** 0.06
34483 H 36.68361519515828 6.380778534650574 116.4518341789173 H 0.0 **** 0.06
34484 H 36.3264868303387 8.125576304766241 116.43302896466622 H 0.0 **** 0.06
34485 H 36.96478644814656 7.331913569513915 114.97340011424734 H 0.0 **** 0.06
34486 C 61.33354078883955 42.79114369435413 18.12775882847052 C 0.0 **** -0.24
34487 H 62.23013141228538 43.04364453292011 18.692899208439 H 0.0 **** 0.06
34488 H 61.462053502297955 43.09401326468763 17.088338959101137 H 0.0 **** 0.06
34489 H 60.476161586885304 43.31087851121114 18.55479012029221 H 0.0 **** 0.06
34490 H 61.16510234548124 41.714541938159044 18.174506699024548 H 0.0 **** 0.06
34491 C 88.61049951732059 80.63953570296533 87.2872018932905 C 0.0 **** -0.24
34492 H 87.86481955644251 80.76509261000956 88.07277877333053 H 0.0 **** 0.06
34493 H 88.5876008283725 79.61144130016729 86.9260624905996 H 0.0 **** 0.06
34494 H 89.5996113168793 80.86193289860469 87.68719245238023 H 0.0 **** 0.06
34495 H 88.38982743151462 81.3196827572591 86.46418125248641 H 0.0 **** 0.06
34496 C 4.116017891006763 91.18003783786986 17.069704022705906 C 0.0 **** -0.24
34497 H 4.093029668316191 92.17163173237117 17.52168103244071 H 0.0 **** 0.06
34498 H 3.1757200674113903 90.66733275229277 17.27158916225102 H 0.0 **** 0.06
34499 H 4.941565574126088 90.60768393074775 17.492111558214788 H 0.0 **** 0.06
34500 H 4.254194508082492 91.275951643952 15.991757357245831 H 0.0 **** 0.06
34501 C 39.42061176442684 54.08959033443083 97.26710224743042 C 0.0 **** -0.24
34502 H 39.74770641548615 53.321201405188354 97.96807921535756 H 0.0 **** 0.06
34503 H 40.12872616069741 54.919606944271486 97.28168632913557 H 0.0 **** 0.06
34504 H 38.43356163970006 54.44929601477623 97.55801291085467 H 0.0 **** 0.06
34505 H 39.373860688047614 53.66873258182657 96.26257786580223 H 0.0 **** 0.06
34506 C 50.4502988632816 37.365212070253705 71.039564121614 C 0.0 **** -0.24
34507 H 50.573863798865034 38.4418137809856 70.92055313653606 H 0.0 **** 0.06
34508 H 49.688103459240324 37.008520423152646 70.34659920257045 H 0.0 **** 0.06
34509 H 50.14451800164113 37.146111884936516 72.06204602359446 H 0.0 **** 0.06
34510 H 51.39631947244959 36.866822666929664 70.82831514147861 H 0.0 **** 0.06
34511 C 27.342431039718775 80.77178354005832 79.70581370703778 C 0.0 **** -0.24
34512 H 27.7181886757229 80.92560326700857 80.71685265849018 H 0.0 **** 0.06
34513 H 27.98187295160139 81.29648376320131 78.99571592165896 H 0.0 **** 0.06
34514 H 26.325975128746762 81.15844239539967 79.63384547336304 H 0.0 **** 0.06
34515 H 27.34268872720196 79.7056691298809 79.47648384028639 H 0.0 **** 0.06
34516 C 103.91469040992683 28.430488208817337 110.48929383776147 C 0.0 **** -0.24
34517 H 104.12825588029193 29.47945012421303 110.28645212136178 H 0.0 **** 0.06
34518 H 104.75983050173136 27.983217048218876 111.01442903304638 H 0.0 **** 0.06
34519 H 103.75145622331263 27.90481925545538 109.54878767149813 H 0.0 **** 0.06
34520 H 103.02008138263545 28.354476123284428 111.1086274053284 H 0.0 **** 0.06
34521 C 57.13731539319707 45.1742098633446 27.491859118755457 C 0.0 **** -0.24
34522 H 57.94959317843984 45.834963329768954 27.189049303341193 H 0.0 **** 0.06
34523 H 56.89363516249898 44.497571063324926 26.671848085856055 H 0.0 **** 0.06
34524 H 56.25979937753809 45.76967397552866 27.743859641068724 H 0.0 **** 0.06
34525 H 57.44540616703776 44.59407622773202 28.361675861781663 H 0.0 **** 0.06
34526 C 104.52289580277457 120.98637174326154 111.72959286123503 C 0.0 **** -0.24
34527 H 105.2557293076066 121.60651039992374 112.24690832853764 H 0.0 **** 0.06
34528 H 103.82367938297608 121.62642209813015 111.18989371585081 H 0.0 **** 0.06
34529 H 103.97807176018918 120.38509489738058 112.45705283706924 H 0.0 **** 0.06
34530 H 105.03456282759907 120.33070017329723 111.02505274441799 H 0.0 **** 0.06
34531 C 82.94109320973553 109.53520456591332 86.01277116071006 C 0.0 **** -0.24
34532 H 83.84200767342475 109.98668612714778 85.59778003344667 H 0.0 **** 0.06
34533 H 82.32000349047371 110.31050762491162 86.46197922620556 H 0.0 **** 0.06
34534 H 83.21818871190703 108.80476058125609 86.77339316942388 H 0.0 **** 0.06
34535 H 82.38494852204838 109.03774295946431 85.21755532651312 H 0.0 **** 0.06
34536 C 120.21625165265797 118.05388109707997 32.25653058014788 C 0.0 **** -0.24
34537 H 120.30184944892656 118.1219809350776 33.34128013129862 H 0.0 **** 0.06
34538 H 121.20185215862791 118.16863580243819 31.806559391257764 H 0.0 **** 0.06
34539 H 119.55770253110676 118.84408755706374 31.89503096357683 H 0.0 **** 0.06
34540 H 119.80197366624083 117.08298617438265 31.98516382264694 H 0.0 **** 0.06
34541 C 95.89764457997364 85.16989722615685 8.166980614958732 C 0.0 **** -0.24
34542 H 96.9643297924303 85.04738782573511 7.9798597479918385 H 0.0 **** 0.06
34543 H 95.64453374780629 86.2307185492368 8.142685312476914 H 0.0 **** 0.06
34544 H 95.65157328646364 84.76031037986331 9.14667172098936 H 0.0 **** 0.06
34545 H 95.3302833954317 84.64242940896645 7.399888611220177 H 0.0 **** 0.06
34546 C 47.71417547805689 38.17221611077751 79.23934151346285 C 0.0 **** -0.24
34547 H 47.183698846873284 37.753152925460704 80.09413546334906 H 0.0 **** 0.06
34548 H 47.59364626393764 39.25620584793907 79.23349596133178 H 0.0 **** 0.06
34549 H 47.30560805912674 37.755739802475176 78.31853084487906 H 0.0 **** 0.06
34550 H 48.77313601223196 37.92519914051867 79.31195907003735 H 0.0 **** 0.06
34551 C 31.494297459594208 59.68573392913942 66.50332396286143 C 0.0 **** -0.24
34552 H 31.956639678456924 59.21149606640938 67.36921441174076 H 0.0 **** 0.06
34553 H 30.55239080540136 60.146354991442536 66.80158933648016 H 0.0 **** 0.06
34554 H 31.30617459800294 58.935263258306634 65.73625641152182 H 0.0 **** 0.06
34555 H 32.163586480482934 60.450292969515715 66.10872820125434 H 0.0 **** 0.06
34556 C 60.73690951522821 22.704668377797304 19.06475917233874 C 0.0 **** -0.24
34557 H 61.70922366525482 22.835907787473218 18.590276801087327 H 0.0 **** 0.06
34558 H 60.346589643586206 21.71620611994473 18.824280808325312 H 0.0 **** 0.06
34559 H 60.04804614619909 23.46621020583285 18.697731254441692 H 0.0 **** 0.06
34560 H 60.84341585791248 22.800980269140666 20.144884860634278 H 0.0 **** 0.06
34561 C 19.943213657430135 13.930063283900378 97.07593338430425 C 0.0 **** -0.24
34562 H 19.24166068323916 13.134349820058226 96.82390426122339 H 0.0 **** 0.06
34563 H 20.923970772507303 13.498536212700497 97.27689362531873 H 0.0 **** 0.06
34564 H 19.589110100780402 14.459396350056814 97.96032712292762 H 0.0 **** 0.06
34565 H 20.01632450292 14.626248874923228 96.24040926303124 H 0.0 **** 0.06
34566 C 71.90866940685771 109.54117404046929 8.085489291741027 C 0.0 **** -0.24
34567 H 71.69369335183535 108.54337707754644 8.46761313374023 H 0.0 **** 0.06
34568 H 72.32240542510812 110.1543876219149 8.886085783884539 H 0.0 **** 0.06
34569 H 70.98852763111194 109.99609455375526 7.71798745515332 H 0.0 **** 0.06
34570 H 72.63003319592838 109.47188211236153 7.271223335892671 H 0.0 **** 0.06
34571 C 98.43557519254588 15.373542054125423 115.69911099679133 C 0.0 **** -0.24
34572 H 98.02162981459233 15.481863428376442 114.69663215409672 H 0.0 **** 0.06
34573 H 98.91511660746883 16.3065628299847 115.99677430884671 H 0.0 **** 0.06
34574 H 99.17170476901552 14.570146105450576 115.70326833854517 H 0.0 **** 0.06
34575 H 97.63441578617079 15.136883156116625 116.39961961705154 H 0.0 **** 0.06
34576 C 81.44809415716233 122.05287935642077 101.60146526772076 C 0.0 **** -0.24
34577 H 80.86106146829889 121.84926285590394 102.49753955197576 H 0.0 **** 0.06
34578 H 81.87310126695778 123.05467313606168 101.665655003345 H 0.0 **** 0.06
34579 H 80.80593904741906 121.98583923848119 100.7237360838673 H 0.0 **** 0.06
34580 H 82.25205161495245 121.32068995830971 101.51984862376997 H 0.0 **** 0.06
34581 C 52.888003557198886 76.39729678004784 90.45852737330637 C 0.0 **** -0.24
34582 H 51.96661426466906 75.98919245075285 90.87327154111415 H 0.0 **** 0.06
34583 H 53.522092402017705 75.58203454383644 90.11121352357043 H 0.0 **** 0.06
34584 H 53.412481418536544 76.96382714247733 91.22804699985079 H 0.0 **** 0.06
34585 H 52.64941685418427 77.05478360953072 89.62283870239196 H 0.0 **** 0.06
34586 C 1.3340707149989104 100.03580968393501 75.76188235632975 C 0.0 **** -0.24
34587 H 2.422832581948658 100.04002759548302 75.82065291336346 H 0.0 **** 0.06
34588 H 1.0218399213914005 100.4437131221683 74.79953836887861 H 0.0 **** 0.06
34589 H 0.9251349052848372 100.6462898961037 76.56580115653162 H 0.0 **** 0.06
34590 H 0.9697027116443593 99.01312522078263 75.85964524190251 H 0.0 **** 0.06
34591 C 73.80937735043375 4.781470550112829 117.11491898192484 C 0.0 **** -0.24
34592 H 74.1486074973219 4.544218259591856 116.10671693251318 H 0.0 **** 0.06
34593 H 72.73789410101102 4.982639298518247 117.10015596163741 H 0.0 **** 0.06
34594 H 74.34032940029155 5.6609690509204995 117.47951252420276 H 0.0 **** 0.06
34595 H 74.01202011155632 3.9362895236567166 117.77357529244237 H 0.0 **** 0.06
34596 C 118.60713058424255 55.77146539063508 70.16170594710155 C 0.0 **** -0.24
34597 H 117.84269158241098 56.066957378123455 69.44267002315843 H 0.0 **** 0.06
34598 H 118.70242931513717 54.68497305215811 70.16466573731742 H 0.0 **** 0.06
34599 H 118.32025985008245 56.113925337853296 71.15618798388084 H 0.0 **** 0.06
34600 H 119.56096541505511 56.22035899783403 69.88367393057479 H 0.0 **** 0.06
34601 C 0.3187788325875829 98.12070647483367 46.0193609389562 C 0.0 **** -0.24
34602 H -0.14486528471923066 97.31882196031032 45.44450834413598 H 0.0 **** 0.06
34603 H 0.8070125960158521 98.81867380547948 45.33965990575867 H 0.0 **** 0.06
34604 H 1.0572511716299573 97.69769934105767 46.70047378078246 H 0.0 **** 0.06
34605 H -0.4455051675564903 98.64489162217288 46.59286596175126 H 0.0 **** 0.06
34606 C 121.77293536435285 62.47950454135008 43.04608739175743 C 0.0 **** -0.24
34607 H 122.61096725363328 61.78328259871125 43.09560268848756 H 0.0 **** 0.06
34608 H 121.67650263457618 62.85852136221524 42.0278068781366 H 0.0 **** 0.06
34609 H 121.94969020511205 63.3103269329784 43.72879595398806 H 0.0 **** 0.06
34610 H 120.85594115503578 61.96419919710536 43.3300699503736 H 0.0 **** 0.06
34611 C 17.084004684776232 104.64462611748678 86.73064930703273 C 0.0 **** -0.24
34612 H 17.462908611429043 104.77462414942624 85.71652973818738 H 0.0 **** 0.06
34613 H 17.873397233377915 104.23613926345053 87.36286217629873 H 0.0 **** 0.06
34614 H 16.237155037190178 103.95909053580715 86.71716877223946 H 0.0 **** 0.06
34615 H 16.76459375974926 105.60875162052412 87.12467815510189 H 0.0 **** 0.06
34616 C 59.485816667087846 80.6916701518692 0.9166595730926872 C 0.0 **** -0.24
34617 H 60.11561238509299 79.82109809243579 0.7341718819042171 H 0.0 **** 0.06
34618 H 59.95292608662274 81.5756307623721 0.48331615583001053 H 0.0 **** 0.06
34619 H 59.36407413709384 80.83260759254247 1.990676578822999 H 0.0 **** 0.06
34620 H 58.50912030694775 80.53478918625723 0.45882039251524986 H 0.0 **** 0.06
34621 C 67.26211837197371 31.726727095618408 92.09108693258707 C 0.0 **** -0.24
34622 H 66.79376846292135 31.00843128209251 92.76333358876906 H 0.0 **** 0.06
34623 H 66.92218689959611 32.732811563395664 92.33835967971746 H 0.0 **** 0.06
34624 H 66.98829792147023 31.492978347968517 91.06189839091044 H 0.0 **** 0.06
34625 H 68.34551303481794 31.672375948235064 92.19964616807295 H 0.0 **** 0.06
34626 C 70.62973244552452 6.0712431009796255 48.94593919735767 C 0.0 **** -0.24
34627 H 71.56729933147298 6.627310543192763 48.91448246380218 H 0.0 **** 0.06
34628 H 70.31073861210587 5.956505051611199 49.98196103705687 H 0.0 **** 0.06
34629 H 70.77495466491217 5.087808976574422 48.49862390435175 H 0.0 **** 0.06
34630 H 69.86682722050602 6.615251538775642 48.38792518699471 H 0.0 **** 0.06
34631 C 95.31719747274383 9.631000518992096 109.64409728340854 C 0.0 **** -0.24
34632 H 95.15923493060461 8.764829233674192 109.0020519335284 H 0.0 **** 0.06
34633 H 95.75196287017707 10.441586956414312 109.06014116463297 H 0.0 **** 0.06
34634 H 95.99430226568722 9.362554750605426 110.45497896142376 H 0.0 **** 0.06
34635 H 94.3624847594445 9.95297754710343 110.05958439432155 H 0.0 **** 0.06
34636 C 99.32919527415757 83.43843134922304 40.167708078395265 C 0.0 **** -0.24
34637 H 99.7957209786602 83.16356157697305 41.11400218498858 H 0.0 **** 0.06
34638 H 99.96012476853022 83.1080980966259 39.3419071930814 H 0.0 **** 0.06
34639 H 99.20848146063017 84.52050595336914 40.123404382976446 H 0.0 **** 0.06
34640 H 98.3525399975978 82.96076691810276 40.092121898976245 H 0.0 **** 0.06
34641 C 21.077494710007016 29.412673631856194 75.91631976211934 C 0.0 **** -0.24
34642 H 21.87395466612182 29.898198918870662 75.35190777318888 H 0.0 **** 0.06
34643 H 20.20073800167239 30.060038976020593 75.93611670098107 H 0.0 **** 0.06
34644 H 21.416476991654605 29.22807697931404 76.93629539238466 H 0.0 **** 0.06
34645 H 20.820541820083974 28.46553177926424 75.44177823273645 H 0.0 **** 0.06
34646 C 81.02131209460043 17.428859084758145 96.65997128419497 C 0.0 **** -0.24
34647 H 80.3575034563631 18.00648368713381 96.016390627927 H 0.0 **** 0.06
34648 H 81.56080659859634 16.69590755719264 96.05971559363186 H 0.0 **** 0.06
34649 H 80.43305654089104 16.91348794539853 97.41959497624447 H 0.0 **** 0.06
34650 H 81.73271093789356 18.098313857583577 97.14274046165104 H 0.0 **** 0.06
34651 C 57.62266550781527 3.514575091470576 6.75417229067196 C 0.0 **** -0.24
34652 H 57.716688502313445 4.508940442942887 6.318813473311835 H 0.0 **** 0.06
34653 H 58.01794270439197 2.7739365874765696 6.05860798664537 H 0.0 **** 0.06
34654 H 56.571315462752324 3.302536311075812 6.951499000785347 H 0.0 **** 0.06
34655 H 58.1833036062724 3.4729687508925338 7.6877492488341375 H 0.0 **** 0.06
34656 C 10.140081967395105 102.65488239789198 109.32412770890551 C 0.0 **** -0.24
34657 H 9.654272266195647 103.61775755669737 109.16638904093946 H 0.0 **** 0.06
34658 H 11.068139042806848 102.61864050336754 108.7527996332725 H 0.0 **** 0.06
34659 H 9.477533618737738 101.85547686188852 108.99106217313823 H 0.0 **** 0.06
34660 H 10.359709795566602 102.5275179312739 110.38413197158178 H 0.0 **** 0.06
34661 C 69.1099890230027 35.69447608874398 39.66551391942468 C 0.0 **** -0.24
34662 H 69.73996672853275 35.484352840433644 40.53002040087367 H 0.0 **** 0.06
34663 H 69.15920653854897 34.85762240592507 38.968728667434306 H 0.0 **** 0.06
34664 H 69.46150431427822 36.60080126087155 39.172147090378786 H 0.0 **** 0.06
34665 H 68.07928557601224 35.83403872383809 39.99335362319593 H 0.0 **** 0.06
34666 C 94.24781952079141 39.16544492055323 29.044556255816076 C 0.0 **** -0.24
34667 H 94.77835354185498 40.08132231868319 29.303610949861252 H 0.0 **** 0.06
34668 H 94.85381041784672 38.57806878242775 28.353878690507784 H 0.0 **** 0.06
34669 H 93.29805809701145 39.416625079381504 28.5715034678747 H 0.0 **** 0.06
34670 H 94.0612680062552 38.58480504246205 29.947804824483278 H 0.0 **** 0.06
34671 C 53.98910239181441 108.03571872315797 12.320166171255295 C 0.0 **** -0.24
34672 H 53.26003351221087 108.57828750508168 11.717753642408155 H 0.0 **** 0.06
34673 H 54.369276615558334 108.68975103082226 13.105465781876319 H 0.0 **** 0.06
34674 H 54.81408636845063 107.71144417084844 11.686199643863716 H 0.0 **** 0.06
34675 H 53.5123257074647 107.16563195578959 12.770530567193532 H 0.0 **** 0.06
34676 C 107.56791781983199 112.34983888562971 28.506153796543686 C 0.0 **** -0.24
34677 H 107.76987113038504 112.87709662506424 29.438277307646615 H 0.0 **** 0.06
34678 H 106.77278997464305 112.8620224035105 27.963395156734123 H 0.0 **** 0.06
34679 H 107.25833380873866 111.32835079627006 28.726287692774406 H 0.0 **** 0.06
34680 H 108.4713575354275 112.33245406996105 27.896193467588375 H 0.0 **** 0.06
34681 C 47.57104841024983 47.94027853806372 115.09432631511797 C 0.0 **** -0.24
34682 H 48.366099513561096 48.382815461492044 115.69585356889114 H 0.0 **** 0.06
34683 H 47.51879708248384 46.869724719263075 115.29368396944797 H 0.0 **** 0.06
34684 H 47.782115896214805 48.103684340662795 114.03734750322121 H 0.0 **** 0.06
34685 H 46.61991876997877 48.406123359137524 115.35141213677866 H 0.0 **** 0.06
34686 C 17.35630561905805 5.569956625917364 40.45549871221169 C 0.0 **** -0.24
34687 H 17.099420943673863 6.590768683582116 40.74047976438118 H 0.0 **** 0.06
34688 H 18.411480863992267 5.522303746826967 40.18637878711513 H 0.0 **** 0.06
34689 H 16.749788536252538 5.268743304878978 39.60072695599956 H 0.0 **** 0.06
34690 H 17.16261722044908 4.8999383562769445 41.293137327821 H 0.0 **** 0.06
34691 C 9.83349964123937 14.617031387439948 98.33384764030899 C 0.0 **** -0.24
34692 H 9.500486897412316 15.462104418313924 98.93649282696512 H 0.0 **** 0.06
34693 H 9.292840514049374 13.720131441619532 98.6354538447317 H 0.0 **** 0.06
34694 H 10.902152250223537 14.46366904564275 98.48356976409647 H 0.0 **** 0.06
34695 H 9.640516978068774 14.822064019986719 97.28128249327267 H 0.0 **** 0.06
34696 C 102.58217596516522 80.41343834494387 48.43882159804508 C 0.0 **** -0.24
34697 H 102.98750328654427 80.82714168463971 47.514512920078914 H 0.0 **** 0.06
34698 H 102.28198138412205 79.37851346273894 48.272683495870496 H 0.0 **** 0.06
34699 H 101.7158011069389 80.99783004186676 48.74815808528899 H 0.0 **** 0.06
34700 H 103.3435084335515 80.45073301521279 49.216969412964886 H 0.0 **** 0.06
34701 C 95.58543121351744 65.99164955281765 114.3924690589198 C 0.0 **** -0.24
34702 H 95.24704239032508 66.90464726861993 113.90228101487952 H 0.0 **** 0.06
34703 H 95.05549078563268 65.13620546502125 113.9707276483301 H 0.0 **** 0.06
34704 H 95.38196902856129 66.0559078129289 115.46086930383836 H 0.0 **** 0.06
34705 H 96.65682513003588 65.86970401318459 114.23228008429174 H 0.0 **** 0.06
34706 C 39.18145368264868 21.98548086278913 112.00616237729533 C 0.0 **** -0.24
34707 H 39.72185162631729 22.182532988375613 112.93244726529873 H 0.0 **** 0.06
34708 H 38.95674031747632 22.929752888602934 111.50885618447639 H 0.0 **** 0.06
34709 H 38.25273943862976 21.463188118210724 112.23204768459186 H 0.0 **** 0.06
34710 H 39.79568988509794 21.36769219144088 111.35130502128226 H 0.0 **** 0.06
34711 C 10.031535895140717 20.270970196645862 114.36938020043766 C 0.0 **** -0.24
34712 H 10.026018096640502 21.113578555674394 115.06052549194914 H 0.0 **** 0.06
34713 H 9.43969135052864 19.455449785679775 114.78568135882512 H 0.0 **** 0.06
34714 H 11.056378886498344 19.935021959397943 114.21498236079458 H 0.0 **** 0.06
34715 H 9.603167850956424 20.580891154375877 113.41603558002811 H 0.0 **** 0.06
34716 C 83.73862188554557 118.75893179262678 51.80090738411172 C 0.0 **** -0.24
34717 H 83.7829821528623 118.26826719254012 50.82910313864043 H 0.0 **** 0.06
34718 H 84.55845006766833 118.40356093100587 52.42530344540066 H 0.0 **** 0.06
34719 H 82.78795868181732 118.52697155690039 52.281430090750725 H 0.0 **** 0.06
34720 H 83.82362158420887 119.83762751541148 51.667214638170584 H 0.0 **** 0.06
34721 C 31.908991473932076 11.058581319320837 47.062196300341554 C 0.0 **** -0.24
34722 H 31.38781173185697 10.438747530448452 47.791766639196965 H 0.0 **** 0.06
34723 H 31.776645032060514 10.635195193711326 46.06588068257258 H 0.0 **** 0.06
34724 H 32.97146551490789 11.08961135296741 47.30601435316328 H 0.0 **** 0.06
34725 H 31.501158922698323 12.068858682990964 47.08480944143247 H 0.0 **** 0.06
34726 C 22.859333081545174 37.97773415274719 115.45020806731776 C 0.0 **** -0.24
34727 H 21.976717734795784 38.43209378556605 115.89933895139217 H 0.0 **** 0.06
34728 H 23.441774548864203 38.74386032128612 114.93877797392616 H 0.0 **** 0.06
34729 H 22.550954503456126 37.21570710921108 114.73434245519854 H 0.0 **** 0.06
34730 H 23.46772068203194 37.51874977603143 116.23054010476767 H 0.0 **** 0.06
34731 C 120.27203632742777 46.78454715766725 53.9203566028576 C 0.0 **** -0.24
34732 H 120.88345411318346 47.59428805213064 54.318166966523926 H 0.0 **** 0.06
34733 H 119.26022234978365 46.86303029012473 54.31963228584225 H 0.0 **** 0.06
34734 H 120.70419694336732 45.826405611337606 54.21064983753764 H 0.0 **** 0.06
34735 H 120.24025967515104 46.8535365026733 52.832605302157056 H 0.0 **** 0.06
34736 C 16.224014115435295 79.41978101190688 69.33949808393834 C 0.0 **** -0.24
34737 H 17.034089177337023 80.03730110094608 69.72767004318737 H 0.0 **** 0.06
34738 H 16.354589970710492 78.39351282523182 69.68083898554971 H 0.0 **** 0.06
34739 H 16.238314031169466 79.44589006279529 68.24974169894904 H 0.0 **** 0.06
34740 H 15.269835053740564 79.80513400102046 69.69954328680251 H 0.0 **** 0.06
34741 C 115.11623524507749 51.91742258895488 106.85760548643356 C 0.0 **** -0.24
34742 H 115.52713071279544 51.70954217068328 105.8702201954236 H 0.0 **** 0.06
34743 H 115.33223556286507 51.08248406259946 107.52449203755808 H 0.0 **** 0.06
34744 H 114.03684881233517 52.051120839569194 106.78063225261104 H 0.0 **** 0.06
34745 H 115.56712754754165 52.82597076675381 107.25473440597656 H 0.0 **** 0.06
34746 C 88.10265460965641 48.22106935180457 40.19814337684656 C 0.0 **** -0.24
34747 H 87.08522590277263 48.3120744980253 39.8171551272704 H 0.0 **** 0.06
34748 H 88.13158082221182 47.45898807061013 40.97793476687545 H 0.0 **** 0.06
34749 H 88.42249427315559 49.17771899441179 40.61172311951448 H 0.0 **** 0.06
34750 H 88.77013239859619 47.93498832686848 39.38517893269503 H 0.0 **** 0.06
34751 C 70.89827345872934 115.01915134593261 42.73237649394201 C 0.0 **** -0.24
34752 H 70.08421069408487 114.29634515305614 42.78760472178871 H 0.0 **** 0.06
34753 H 70.48713604699074 116.0282088737741 42.71688365184164 H 0.0 **** 0.06
34754 H 71.47558164832512 114.84700168643101 41.824421190202344 H 0.0 **** 0.06
34755 H 71.54598309897796 114.90337657473 43.60206874977007 H 0.0 **** 0.06
34756 C 45.54490512418027 102.8257494173252 18.98813073802097 C 0.0 **** -0.24
34757 H 45.262044201501794 103.31162846803281 19.921972468842966 H 0.0 **** 0.06
34758 H 46.62814901329841 102.85730589170936 18.87596152166651 H 0.0 **** 0.06
34759 H 45.07667935780835 103.3461215420077 18.15224638756331 H 0.0 **** 0.06
34760 H 45.21023366545581 101.78858400073287 19.00384807755171 H 0.0 **** 0.06
34761 C 55.5793629671179 109.14364591771397 103.42413404970515 C 0.0 **** -0.24
34762 H 54.919520691456256 108.53744564372397 102.80229354836933 H 0.0 **** 0.06
34763 H 55.136415701709694 109.262231982396 104.4136456800426 H 0.0 **** 0.06
34764 H 55.71223084443761 110.12279639571366 102.96496790462655 H 0.0 **** 0.06
34765 H 56.54663705248717 108.65020783932965 103.51501746060057 H 0.0 **** 0.06
34766 C 19.922722567016507 15.750948255862305 36.76396814903575 C 0.0 **** -0.24
34767 H 19.49417119245453 14.855512001401713 36.31381066240007 H 0.0 **** 0.06
34768 H 19.135652246907142 16.31929119493927 37.26117015327978 H 0.0 **** 0.06
34769 H 20.379332772346146 16.36540214472874 35.987552853892936 H 0.0 **** 0.06
34770 H 20.680114159881697 15.464448604954448 37.49254207628593 H 0.0 **** 0.06
34771 C 78.6928379352234 86.43909788680452 14.697829447479535 C 0.0 **** -0.24
34772 H 77.67877258578295 86.74746423542155 14.443810191487671 H 0.0 **** 0.06
34773 H 78.99024534736674 86.9065291180643 15.636976960413847 H 0.0 **** 0.06
34774 H 79.37454575879218 86.74783814087772 13.90506589434932 H 0.0 **** 0.06
34775 H 78.72617721963485 85.35453957222785 14.80391390912797 H 0.0 **** 0.06
34776 C 85.39511151710465 117.17279565420606 98.29884971836458 C 0.0 **** -0.24
34777 H 85.52308646385904 118.24932278444282 98.41627175286413 H 0.0 **** 0.06
34778 H 84.35293631834796 116.9539743943009 98.06433897066239 H 0.0 **** 0.06
34779 H 85.67290628845709 116.67051769300215 99.22490262396133 H 0.0 **** 0.06
34780 H 86.03216876901229 116.81841784850766 97.48802199294727 H 0.0 **** 0.06
34781 C 36.98937093049193 92.67226261237053 97.92148940041673 C 0.0 **** -0.24
34782 H 38.06642628278564 92.80034603927629 98.03428387161301 H 0.0 **** 0.06
34783 H 36.660637333466326 93.1560916459884 97.00085705926193 H 0.0 **** 0.06
34784 H 36.479115723730416 93.12478594277121 98.77204828466353 H 0.0 **** 0.06
34785 H 36.752505301758504 91.60960561282928 97.87939605740152 H 0.0 **** 0.06
34786 C 6.484175018931918 15.917372183886187 45.886089731405 C 0.0 **** -0.24
34787 H 5.935852063415481 15.160600911284025 46.44745443298017 H 0.0 **** 0.06
34788 H 5.904325914581033 16.211115603563492 45.01123778044176 H 0.0 **** 0.06
34789 H 7.442580250321221 15.508283664275972 45.56649917964187 H 0.0 **** 0.06
34790 H 6.653266140696797 16.78751766539473 46.52045568742828 H 0.0 **** 0.06
34791 C 84.90640319918671 59.11275330279108 7.459749044065802 C 0.0 **** -0.24
34792 H 85.75598740108958 59.79368372486954 7.503970475843062 H 0.0 **** 0.06
34793 H 85.14223042100838 58.202349474791674 8.012005863693247 H 0.0 **** 0.06
34794 H 84.69628341005102 58.86170795041113 6.4196845848953785 H 0.0 **** 0.06
34795 H 84.03342966267573 59.59155202723912 7.902517690940158 H 0.0 **** 0.06
34796 C 2.681565733587206 121.24875054997972 23.82162800594685 C 0.0 **** -0.24
34797 H 3.1042356205785495 121.22205549282378 24.825702025953632 H 0.0 **** 0.06
34798 H 3.4139161842442434 120.86681364490403 23.109564658482753 H 0.0 **** 0.06
34799 H 2.424427845861132 122.2764106126042 23.563552298480232 H 0.0 **** 0.06
34800 H 1.7849615182482381 120.63010948604108 23.788158261740435 H 0.0 **** 0.06
34801 C 73.89905665080738 56.162580691834734 83.82011558575815 C 0.0 **** -0.24
34802 H 73.68736869737975 57.091861647400606 83.29014831465054 H 0.0 **** 0.06
34803 H 73.19212106474228 56.045359874861674 84.64190906807224 H 0.0 **** 0.06
34804 H 74.913983084785 56.19287812296784 84.21515162166017 H 0.0 **** 0.06
34805 H 73.80028782133024 55.321803397089695 83.13390325907744 H 0.0 **** 0.06
34806 C 13.685173865453294 115.9854403143193 13.955981354329069 C 0.0 **** -0.24
34807 H 14.491465866139464 116.6962487059387 13.77940082887472 H 0.0 **** 0.06
34808 H 13.16265592384886 116.24956864981188 14.875803290599123 H 0.0 **** 0.06
34809 H 14.099981006003134 114.98183355163998 14.049488719964089 H 0.0 **** 0.06
34810 H 12.986062231804397 116.01295303486035 13.119848510511368 H 0.0 **** 0.06
34811 C 43.281602235098944 111.45159768357962 4.485172259115274 C 0.0 **** -0.24
34812 H 43.02243624265367 110.69582144509616 5.226944071716986 H 0.0 **** 0.06
34813 H 44.30670335444398 111.29251370593738 4.148065145965745 H 0.0 **** 0.06
34814 H 43.19494183458551 112.44293378762893 4.931744673123092 H 0.0 **** 0.06
34815 H 42.60295423309066 111.37535437629231 3.635820177604785 H 0.0 **** 0.06
34816 C 52.342142953734616 120.27461910417595 26.099072521557538 C 0.0 **** -0.24
34817 H 51.37322871376059 120.37041132234518 26.58771973601352 H 0.0 **** 0.06
34818 H 52.22129466998238 119.74605158668257 25.15385076790627 H 0.0 **** 0.06
34819 H 53.02049565335022 119.71604652997976 26.7444921203086 H 0.0 **** 0.06
34820 H 52.754031420350806 121.26694249643462 25.911132655831295 H 0.0 **** 0.06
34821 C 68.78472732999836 0.5111386519239005 37.56819850017513 C 0.0 **** -0.24
34822 H 69.6528048980586 0.8472721577527409 37.00175283429303 H 0.0 **** 0.06
34823 H 68.35256117142686 1.3557175587007038 38.10537541764563 H 0.0 **** 0.06
34824 H 69.08923849616963 -0.255504153272895 38.27965250878253 H 0.0 **** 0.06
34825 H 68.04273037319831 0.09784807061124923 36.88462950565486 H 0.0 **** 0.06
34826 C 5.718974565980176 68.06162522075897 42.95596626247249 C 0.0 **** -0.24
34827 H 6.007261057463012 68.2042269320275 43.998389828298244 H 0.0 **** 0.06
34828 H 4.830548197857468 68.65532607494282 42.741117468284784 H 0.0 **** 0.06
34829 H 5.503635582918548 67.00752355534235 42.780521284022484 H 0.0 **** 0.06
34830 H 6.535111313298245 68.37842585686724 42.307238083228754 H 0.0 **** 0.06
34831 C 0.6564350307121174 84.13357294635139 118.65958781022783 C 0.0 **** -0.24
34832 H 0.9949354857033939 84.7613705103415 117.8350413792545 H 0.0 **** 0.06
34833 H 1.446653553019857 83.43220868118019 118.92990439768693 H 0.0 **** 0.06
34834 H -0.2315082047374517 83.5809181669255 118.3548148461461 H 0.0 **** 0.06
34835 H 0.41713982314735176 84.7606395681278 119.518897084174 H 0.0 **** 0.06
34836 C 33.72122528579271 121.74993231702939 101.16172522945087 C 0.0 **** -0.24
34837 H 33.75805327152364 121.9289411965568 100.08768398893301 H 0.0 **** 0.06
34838 H 34.495615062284685 121.03364774785621 101.43740267630051 H 0.0 **** 0.06
34839 H 32.74339278451751 121.34889864304596 101.42944103347173 H 0.0 **** 0.06
34840 H 33.887499054093134 122.68685009462645 101.69334656089293 H 0.0 **** 0.06
34841 C 51.93342432599883 12.152878754565819 102.86773794308908 C 0.0 **** -0.24
34842 H 51.2448019736953 12.635201494775743 103.56078996616358 H 0.0 **** 0.06
34843 H 52.66744937004694 11.573185413714285 103.42979144701962 H 0.0 **** 0.06
34844 H 52.446252916165804 12.912452772921796 102.27753603951629 H 0.0 **** 0.06
34845 H 51.3770853261546 11.489876313474426 102.20502094518122 H 0.0 **** 0.06
34846 C 67.94181926740546 68.34337024128737 107.26797408746484 C 0.0 **** -0.24
34847 H 67.22933210725756 67.99594534480454 106.52062607715712 H 0.0 **** 0.06
34848 H 68.76458002593708 67.63123833955271 107.34406032463977 H 0.0 **** 0.06
34849 H 67.44274222503196 68.42666512515876 108.2340999955558 H 0.0 **** 0.06
34850 H 68.33094680175833 69.3176887130569 106.97416743758956 H 0.0 **** 0.06
34851 C 33.82517349951684 47.47347924855157 118.46881054642172 C 0.0 **** -0.24
34852 H 33.95993303150217 46.394180063755016 118.53634009393328 H 0.0 **** 0.06
34853 H 34.55020633149329 47.887197091801454 117.7667947669594 H 0.0 **** 0.06
34854 H 33.9742613010081 47.92046546810096 119.45097051095338 H 0.0 **** 0.06
34855 H 32.8152774661972 47.69241179104415 118.11977507712838 H 0.0 **** 0.06
34856 C 75.4077050360786 78.24804205305287 7.391747859324639 C 0.0 **** -0.24
34857 H 76.46976173882615 78.09223752019497 7.579291449952109 H 0.0 **** 0.06
34858 H 74.82660965371576 77.78498531705063 8.189631170869063 H 0.0 **** 0.06
34859 H 75.13817688143047 77.79654010930952 6.437351894820495 H 0.0 **** 0.06
34860 H 75.19630315291556 79.31619700554305 7.361067474056597 H 0.0 **** 0.06
34861 C 77.83754705766282 121.05385031056909 103.42609069511047 C 0.0 **** -0.24
34862 H 78.73545073809714 120.45794140179487 103.58536594290598 H 0.0 **** 0.06
34863 H 77.01521857447361 120.63321212827728 104.00648678503381 H 0.0 **** 0.06
34864 H 77.57774343885961 121.04388955574882 102.36804110531932 H 0.0 **** 0.06
34865 H 78.02100714532102 122.07974189747839 103.74548383595345 H 0.0 **** 0.06
34866 C 90.57477321313505 3.0352647641620933 65.78705257503924 C 0.0 **** -0.24
34867 H 89.64268510100356 3.031165137687566 65.22209588054358 H 0.0 **** 0.06
34868 H 91.0863291433298 3.9863959422130364 65.63874494038697 H 0.0 **** 0.06
34869 H 91.21301013070226 2.221593268376438 65.44120793653718 H 0.0 **** 0.06
34870 H 90.35730222606853 2.900639205746586 66.84674803739591 H 0.0 **** 0.06
34871 C 48.92141813924469 92.41087720161951 87.55457613628909 C 0.0 **** -0.24
34872 H 49.29290342052177 91.45267418869173 87.91658407947574 H 0.0 **** 0.06
34873 H 47.847232032045284 92.47243360035455 87.72798353391366 H 0.0 **** 0.06
34874 H 49.123290002172666 92.49915587560528 86.48671949884141 H 0.0 **** 0.06
34875 H 49.42322828848964 93.21981623667554 88.08617408510881 H 0.0 **** 0.06
34876 C 42.34899992443641 35.703233307516605 0.1702345586108578 C 0.0 **** -0.24
34877 H 42.77500934092234 34.81952877215422 0.6460952972686442 H 0.0 **** 0.06
34878 H 41.43108098781666 35.42774951303074 -0.35062408455647187 H 0.0 **** 0.06
34879 H 43.063143937346 36.11243545079285 -0.5427857344325844 H 0.0 **** 0.06
34880 H 42.124342622402736 36.45155576979246 0.9305685273187692 H 0.0 **** 0.06
34881 C 13.503987780210878 12.297436125102138 29.232587754723724 C 0.0 **** -0.24
34882 H 14.42346705292232 12.801497715534254 29.527675581375377 H 0.0 **** 0.06
34883 H 12.67945476494873 12.653658565519493 29.84990533397331 H 0.0 **** 0.06
34884 H 13.620384434475284 11.221309430587098 29.36676066055898 H 0.0 **** 0.06
34885 H 13.293014986249943 12.512115063407293 28.18413620129246 H 0.0 **** 0.06
34886 C 80.3885047895514 116.99694838295515 79.48686668855751 C 0.0 **** -0.24
34887 H 79.5459455990034 117.26972859767235 80.12191870719585 H 0.0 **** 0.06
34888 H 81.31806590837263 117.1214380800886 80.04377212139767 H 0.0 **** 0.06
34889 H 80.4035177079239 117.6401930081905 78.60663141744485 H 0.0 **** 0.06
34890 H 80.28760550833135 115.95773210858898 79.17487956540583 H 0.0 **** 0.06
34891 C 100.85097245114525 39.31140475916088 92.23384715116867 C 0.0 **** -0.24
34892 H 99.81356811918107 39.340644084375846 92.56507723612222 H 0.0 **** 0.06
34893 H 101.05716436249935 40.18152866518996 91.61008000941655 H 0.0 **** 0.06
34894 H 101.02316444964606 38.40225736966109 91.65845422199374 H 0.0 **** 0.06
34895 H 101.50969066889141 39.32214106557794 93.10173085469478 H 0.0 **** 0.06
34896 C 73.24428689558633 21.159671979241132 90.17027804973216 C 0.0 **** -0.24
34897 H 74.20022509091999 20.63839919728299 90.20872180636732 H 0.0 **** 0.06
34898 H 73.41038568925308 22.23316349444913 90.26211651443901 H 0.0 **** 0.06
34899 H 72.61169764213582 20.81872604520261 90.99003097142128 H 0.0 **** 0.06
34900 H 72.75275559265359 20.947685995674327 89.2206307125141 H 0.0 **** 0.06
34901 C 8.094250404000633 94.34305024209132 33.97185119373371 C 0.0 **** -0.24
34902 H 7.589021583660923 93.37751067433109 33.94347296491389 H 0.0 **** 0.06
34903 H 7.49373336394126 95.08340668717778 33.44324666125059 H 0.0 **** 0.06
34904 H 9.06942588223555 94.25623225869032 33.49244993570215 H 0.0 **** 0.06
34905 H 8.225165958374902 94.6526332698383 35.00841984058928 H 0.0 **** 0.06
34906 C 42.07838317855732 121.764288806927 41.728041309319735 C 0.0 **** -0.24
34907 H 41.852581958456 120.71169004375116 41.89983712421355 H 0.0 **** 0.06
34908 H 42.29170949777989 121.92156227779634 40.67050213959948 H 0.0 **** 0.06
34909 H 42.9466962730894 122.05149702025062 42.32076293282074 H 0.0 **** 0.06
34910 H 41.22103462327246 122.37112452113175 42.02078530930447 H 0.0 **** 0.06
34911 C 76.1055037648089 103.94292730305727 113.75046121592193 C 0.0 **** -0.24
34912 H 75.62528309985194 103.52535650486396 112.86521667331459 H 0.0 **** 0.06
34913 H 77.18227758844654 103.98860088826433 113.59263823688283 H 0.0 **** 0.06
34914 H 75.89107105563392 103.31010124700882 114.61192679929874 H 0.0 **** 0.06
34915 H 75.71993637614682 104.94619482327616 113.9320767598245 H 0.0 **** 0.06
34916 C 34.69957303098633 38.09277766678558 68.2397131602122 C 0.0 **** -0.24
34917 H 35.53970375202252 38.71025753485718 67.92186553217488 H 0.0 **** 0.06
34918 H 33.91588225127745 38.128343966919516 67.48220804927303 H 0.0 **** 0.06
34919 H 34.30831161041354 38.46905079809537 69.18521788828627 H 0.0 **** 0.06
34920 H 35.03384231469522 37.06323005496887 68.36875929254225 H 0.0 **** 0.06
34921 C 106.81576779829334 94.17509397612505 90.25182146651258 C 0.0 **** -0.24
34922 H 106.70964337080272 93.41717533017012 89.4760998510805 H 0.0 **** 0.06
34923 H 107.58203284880378 93.8635311587822 90.96248993918931 H 0.0 **** 0.06
34924 H 105.8658707525205 94.29913212826625 90.7721351082975 H 0.0 **** 0.06
34925 H 107.10698081922803 95.12245945524324 89.79698983347629 H 0.0 **** 0.06
34926 C 3.065369555809525 0.5432160510064818 30.705569157328142 C 0.0 **** -0.24
34927 H 3.914655706592498 -0.13924581242076783 30.7428248463018 H 0.0 **** 0.06
34928 H 2.318692411376503 0.23178196275421215 31.43753042766349 H 0.0 **** 0.06
34929 H 2.6273589426861577 0.5239708523639024 29.708196412789704 H 0.0 **** 0.06
34930 H 3.401762511306515 1.5534965209120628 30.935923695508137 H 0.0 **** 0.06
34931 C 106.02857532938708 87.88852920576855 82.89076158445079 C 0.0 **** -0.24
34932 H 105.22270776547904 88.61229068111683 83.01162064234956 H 0.0 **** 0.06
34933 H 106.11021311574564 87.28132454045198 83.79265122979311 H 0.0 **** 0.06
34934 H 106.9676807222445 88.41520736863242 82.72084599565974 H 0.0 **** 0.06
34935 H 105.8130897428164 87.2454551261755 82.03666270551659 H 0.0 **** 0.06
34936 C 12.985350452676869 20.87727133158637 40.046504510146946 C 0.0 **** -0.24
34937 H 12.480793509467219 21.84258993879223 40.07928213652974 H 0.0 **** 0.06
34938 H 12.804191950394 20.341250215272453 40.97876743066712 H 0.0 **** 0.06
34939 H 14.057129825150355 21.031425080932365 39.91745884202359 H 0.0 **** 0.06
34940 H 12.598783516728645 20.294203223699242 39.21128438761474 H 0.0 **** 0.06
34941 C 24.84008514327232 9.445391155006519 94.91388833982302 C 0.0 **** -0.24
34942 H 24.966251643464332 8.69740362188989 94.13103982181212 H 0.0 **** 0.06
34943 H 24.75488525881604 10.433745963825714 94.46084866155172 H 0.0 **** 0.06
34944 H 25.703042612103744 9.423433550347454 95.57964085878177 H 0.0 **** 0.06
34945 H 23.937179330146613 9.226570019733032 95.48207617249864 H 0.0 **** 0.06
34946 C 111.91331259796857 40.79924832653111 33.7348054382102 C 0.0 **** -0.24
34947 H 111.62005486651896 39.758438374610776 33.869881876749986 H 0.0 **** 0.06
34948 H 112.74365934341145 40.854705068645536 33.02989690793413 H 0.0 **** 0.06
34949 H 112.22043723718274 41.217477749750095 34.6924852591639 H 0.0 **** 0.06
34950 H 111.06815289956316 41.36657044043795 33.344706931630895 H 0.0 **** 0.06
34951 C 12.28507393274458 83.2457523976272 33.56072345401196 C 0.0 **** -0.24
34952 H 12.31226679058907 82.35960769727575 32.92719744381077 H 0.0 **** 0.06
34953 H 11.332680979774832 83.75846722133258 33.427493283830586 H 0.0 **** 0.06
34954 H 13.100179106528252 83.91511783735638 33.28374574384313 H 0.0 **** 0.06
34955 H 12.395994104970352 82.94999964292197 34.603922931111214 H 0.0 **** 0.06
34956 C 110.53384684547947 31.64213199222663 73.53943759125232 C 0.0 **** -0.24
34957 H 110.86826492862502 31.339469467602783 74.53120924463639 H 0.0 **** 0.06
34958 H 109.58561304588403 32.1744329444475 73.6231726774277 H 0.0 **** 0.06
34959 H 110.40044344030488 30.758571893250227 72.91578289983488 H 0.0 **** 0.06
34960 H 111.27937836356381 32.29644364485538 73.08757683080995 H 0.0 **** 0.06
34961 C 102.76018018973468 55.050360302080094 65.05609077078606 C 0.0 **** -0.24
34962 H 102.01748494772892 55.03443768751805 64.25812748567006 H 0.0 **** 0.06
34963 H 102.58071096674905 54.215497456109176 65.73506578724133 H 0.0 **** 0.06
34964 H 102.68289321552606 55.98940806943381 65.60497891675564 H 0.0 **** 0.06
34965 H 103.75745671218124 54.96101561090762 64.62650476479547 H 0.0 **** 0.06
34966 C 110.24561292388293 38.019214994582455 53.17161900286683 C 0.0 **** -0.24
34967 H 111.31658175504708 37.84151280627856 53.27467182238174 H 0.0 **** 0.06
34968 H 109.95817604991095 37.9087727201088 52.12539878297505 H 0.0 **** 0.06
34969 H 110.01102302635437 39.029486427336224 53.507872444701555 H 0.0 **** 0.06
34970 H 109.69780317698314 37.29776022636344 53.77801708940164 H 0.0 **** 0.06
34971 C 93.81955944892607 5.1932528811877035 26.023473914113595 C 0.0 **** -0.24
34972 H 93.93823486376283 5.446313702417143 24.969529161541402 H 0.0 **** 0.06
34973 H 94.2196864650283 6.000278920074322 26.63789031775717 H 0.0 **** 0.06
34974 H 94.35948646287324 4.271521970985475 26.238478647210172 H 0.0 **** 0.06
34975 H 92.76175221804769 5.055318978845804 26.247011878640166 H 0.0 **** 0.06
34976 C 91.11324233118904 42.366999650166406 87.74686258001822 C 0.0 **** -0.24
34977 H 90.452212813834 41.52108443844999 87.5611787084832 H 0.0 **** 0.06
34978 H 92.00065963984457 42.02436710812316 88.27954787322147 H 0.0 **** 0.06
34979 H 90.59135776095405 43.110273713123284 88.35055153655748 H 0.0 **** 0.06
34980 H 91.40824138164604 42.8132130613429 86.79710456617443 H 0.0 **** 0.06
34981 C 31.27880905504057 42.413757899626034 113.1508622353798 C 0.0 **** -0.24
34982 H 31.97327570650434 41.960355267066895 113.85792604786008 H 0.0 **** 0.06
34983 H 30.270279110412105 42.38364337215916 113.56274640851808 H 0.0 **** 0.06
34984 H 31.3051186333887 41.8617344009 112.21148159982101 H 0.0 **** 0.06
34985 H 31.567933603067146 43.449173829493354 112.97161949330095 H 0.0 **** 0.06
34986 C 91.64666749487054 113.61321525518463 10.260086155584673 C 0.0 **** -0.24
34987 H 90.89716762899224 114.1821724611928 10.810868161478453 H 0.0 **** 0.06
34988 H 91.20411444197597 113.21939029429808 9.345659138024018 H 0.0 **** 0.06
34989 H 92.00222001924601 112.7884391831418 10.877569721795197 H 0.0 **** 0.06
34990 H 92.4837859989162 114.26528855735819 10.008419283050188 H 0.0 **** 0.06
34991 C 119.25466121927903 121.3323092114701 77.86944329460732 C 0.0 **** -0.24
34992 H 118.68441980782524 121.9553504915424 78.55869901151817 H 0.0 **** 0.06
34993 H 119.32914471225484 121.83402697103577 76.90405078786708 H 0.0 **** 0.06
34994 H 118.75191279624514 120.37394200453758 77.7442898636244 H 0.0 **** 0.06
34995 H 120.25472162690139 121.16790666803522 78.27263828925075 H 0.0 **** 0.06
34996 C 11.296162291952015 23.79140289444488 58.240892081083395 C 0.0 **** -0.24
34997 H 12.357267709390243 24.03420606063066 58.29486455999345 H 0.0 **** 0.06
34998 H 11.155167095282906 22.920881665332722 57.59945515480353 H 0.0 **** 0.06
34999 H 10.748981877021151 24.63939361633532 57.83018609554974 H 0.0 **** 0.06
35000 H 10.923486604936784 23.56879378469953 59.24092716471386 H 0.0 **** 0.06
35001 C 0.8772614273011641 0.13693556774599536 81.26111040231368 C 0.0 **** -0.24
35002 H 1.6261331695776562 0.7906251948743179 81.70611714996471 H 0.0 **** 0.06
35003 H 0.4652017388584113 -0.5182958108621225 82.02849607926166 H 0.0 **** 0.06
35004 H 1.3403146283272918 -0.46557072980338887 80.47883161866875 H 0.0 **** 0.06
35005 H 0.07732748566789382 0.7398802693694257 80.82966331709099 H 0.0 **** 0.06
35006 C 88.03392955117965 46.22966840320226 110.81788279190212 C 0.0 **** -0.24
35007 H 88.1941948858265 46.762478208695185 111.7547482131209 H 0.0 **** 0.06
35008 H 87.68182375386789 45.220180812125044 111.02970212395869 H 0.0 **** 0.06
35009 H 88.9708161856239 46.179779470642316 110.26352764647237 H 0.0 **** 0.06
35010 H 87.28757863786996 46.7577509902331 110.22355688633832 H 0.0 **** 0.06
35011 C 53.30978291467659 67.8597204542919 101.23742112207572 C 0.0 **** -0.24
35012 H 52.505829175762585 68.3173180670386 100.6608190535377 H 0.0 **** 0.06
35013 H 54.251499279553826 68.35734116329357 101.00361970247536 H 0.0 **** 0.06
35014 H 53.38312428909245 66.80298408989157 100.98253807297363 H 0.0 **** 0.06
35015 H 53.09751182638087 67.96348772290051 102.30145094387842 H 0.0 **** 0.06
35016 C 3.8815698727772627 43.187319016303775 71.64219775895754 C 0.0 **** -0.24
35017 H 3.2924317206397404 43.400632534104176 70.75004937841095 H 0.0 **** 0.06
35018 H 3.3002156090922483 42.560688638728955 72.31936005818358 H 0.0 **** 0.06
35019 H 4.136203962921442 44.12273855411242 72.14025386696889 H 0.0 **** 0.06
35020 H 4.795089364681729 42.666698670862374 71.35797315544994 H 0.0 **** 0.06
35021 C 100.82899526100314 95.69901451882578 33.226008067335215 C 0.0 **** -0.24
35022 H 100.72390133061381 94.88617923078235 33.94487955292141 H 0.0 **** 0.06
35023 H 100.56808322995809 95.33903554894587 32.23041717512501 H 0.0 **** 0.06
35024 H 101.85922110090746 96.05324407735768 33.22710250415582 H 0.0 **** 0.06
35025 H 100.16373424159451 96.51660089452955 33.5036128627205 H 0.0 **** 0.06
35026 C 41.72872986435394 1.193736088446414 72.33548030330084 C 0.0 **** -0.24
35027 H 41.411488353465614 0.3118913732732267 71.77771518865958 H 0.0 **** 0.06
35028 H 40.897207483089204 1.5624413338327798 72.93557285131772 H 0.0 **** 0.06
35029 H 42.04647858950699 1.969577463546841 71.63782342353085 H 0.0 **** 0.06
35030 H 42.56065245936253 0.9294372496875667 72.98865874451604 H 0.0 **** 0.06
35031 C 103.13937824409211 1.2364940658808905 10.641237366213758 C 0.0 **** -0.24
35032 H 104.14697220538201 1.6427050268962091 10.726742708035577 H 0.0 **** 0.06
35033 H 103.1799118967958 0.14895019352680094 10.695885675193022 H 0.0 **** 0.06
35034 H 102.70612984138305 1.5380487749531113 9.687666866014794 H 0.0 **** 0.06
35035 H 102.52396937668598 1.6185934710131562 11.457540781204795 H 0.0 **** 0.06
35036 C 41.618083732599274 62.788014610792516 5.390247277459167 C 0.0 **** -0.24
35037 H 41.48152292762643 62.681098894723505 6.466349644271759 H 0.0 **** 0.06
35038 H 42.67501636253638 62.68541591860898 5.145753893658991 H 0.0 **** 0.06
35039 H 41.26429054993562 63.76994879612258 5.074939798017837 H 0.0 **** 0.06
35040 H 41.04882471448278 62.014714472148825 4.874148244377409 H 0.0 **** 0.06
35041 C 108.26160106172782 108.763198469841 77.99479559916949 C 0.0 **** -0.24
35042 H 107.20477405892345 108.53815676599501 77.85489566726142 H 0.0 **** 0.06
35043 H 108.83067416692566 108.3756506726117 77.14966031684645 H 0.0 **** 0.06
35044 H 108.613473160593 108.29540769641531 78.91434927028698 H 0.0 **** 0.06
35045 H 108.39740977269918 109.84296013651544 78.06105947098484 H 0.0 **** 0.06
35046 C 57.40746336029803 92.64087549243834 104.83370071203356 C 0.0 **** -0.24
35047 H 56.39700344955374 92.38016821317854 104.51743869492438 H 0.0 **** 0.06
35048 H 57.7451085003918 93.51849518386155 104.28257952978893 H 0.0 **** 0.06
35049 H 58.0768134380833 91.80376698391115 104.63268328026797 H 0.0 **** 0.06
35050 H 57.40914341422263 92.85868947684497 105.90172570045294 H 0.0 **** 0.06
35051 C 99.3288401457595 76.22215902044692 39.88335143846083 C 0.0 **** -0.24
35052 H 99.76194635543294 76.46182452155375 40.855007059206066 H 0.0 **** 0.06
35053 H 99.01746426404881 75.17772495523678 39.87227611941618 H 0.0 **** 0.06
35054 H 100.07224945523606 76.38834821930317 39.10366054907398 H 0.0 **** 0.06
35055 H 98.46446673701314 76.86123097380684 39.70354385878925 H 0.0 **** 0.06
35056 C 93.22515549219602 54.14772120326643 6.0035061855572565 C 0.0 **** -0.24
35057 H 92.18385708883235 54.17396677352866 6.323780918433812 H 0.0 **** 0.06
35058 H 93.80439492943654 54.86018122549763 6.59097408053627 H 0.0 **** 0.06
35059 H 93.28754640698818 54.41000522805166 4.947408846755621 H 0.0 **** 0.06
35060 H 93.62479829504557 53.143756612783534 6.15224741676235 H 0.0 **** 0.06
35061 C 39.93175680086779 5.739866731276749 121.7513272499981 C 0.0 **** -0.24
35062 H 39.15562250286442 5.109571269447088 122.1867665408797 H 0.0 **** 0.06
35063 H 39.92529645163253 5.627971307224641 120.66721895595747 H 0.0 **** 0.06
35064 H 40.90390067679607 5.439788707157447 122.14230114394475 H 0.0 **** 0.06
35065 H 39.74169198415308 6.781239620251938 122.01041213699759 H 0.0 **** 0.06
35066 C 118.55455419853405 29.43693926926335 52.49979847180933 C 0.0 **** -0.24
35067 H 117.68262450404251 30.091222224406636 52.51478438980388 H 0.0 **** 0.06
35068 H 119.07319670276735 29.501601407594137 53.45665996968688 H 0.0 **** 0.06
35069 H 119.22750550345998 29.74829663157155 51.700743233395116 H 0.0 **** 0.06
35070 H 118.23609645754581 28.409958959684644 52.32629304070869 H 0.0 **** 0.06
35071 C 11.892331013402668 27.709471058076076 121.23702389502694 C 0.0 **** -0.24
35072 H 11.01096287329483 28.343309195380243 121.33878632284289 H 0.0 **** 0.06
35073 H 11.707240800958829 26.750715033514496 121.72152016294744 H 0.0 **** 0.06
35074 H 12.745257411005014 28.196869906859888 121.70947924751846 H 0.0 **** 0.06
35075 H 12.1043122631078 27.54853034385178 120.18036495079977 H 0.0 **** 0.06
35076 C 20.54084948440254 39.53081501482117 56.316889769539955 C 0.0 **** -0.24
35077 H 21.26398142169031 38.92260693386709 55.77336215351744 H 0.0 **** 0.06
35078 H 21.060519211654643 40.34360846268129 56.825773254311855 H 0.0 **** 0.06
35079 H 20.024925882449583 38.91221209792886 57.051020807008655 H 0.0 **** 0.06
35080 H 19.815807762395245 39.94549047675224 55.61592119563815 H 0.0 **** 0.06
35081 C 24.57423777925618 31.713665730397963 46.18315582957575 C 0.0 **** -0.24
35082 H 25.106380841923396 30.844555474464613 46.56929340450705 H 0.0 **** 0.06
35083 H 24.772237056401877 31.81616503703563 45.11592279946632 H 0.0 **** 0.06
35084 H 24.915196610897425 32.60916602532521 46.70353403258167 H 0.0 **** 0.06
35085 H 23.50380923045185 31.585297817818002 46.343347970324885 H 0.0 **** 0.06
35086 C 6.041133470690326 37.93680862309958 48.822091397297385 C 0.0 **** -0.24
35087 H 6.524853345800665 38.730235408742345 48.25119278843104 H 0.0 **** 0.06
35088 H 5.9945239674731425 38.22259886703023 49.87300606040708 H 0.0 **** 0.06
35089 H 6.614710123966393 37.01558358520131 48.72058093966271 H 0.0 **** 0.06
35090 H 5.031324342486947 37.78074976557312 48.44288396908959 H 0.0 **** 0.06
35091 C 52.43934877830293 66.24580893396069 94.2257553711091 C 0.0 **** -0.24
35092 H 52.68886108989673 66.60007604836753 93.22626176342263 H 0.0 **** 0.06
35093 H 51.374973450084525 66.01590846806229 94.27493940548575 H 0.0 **** 0.06
35094 H 52.678139826690455 67.02083347435428 94.95454338270457 H 0.0 **** 0.06
35095 H 53.01585039478471 65.34758017819351 94.4479583012394 H 0.0 **** 0.06
35096 C 18.868333148305908 35.50037186407715 110.86411554310351 C 0.0 **** -0.24
35097 H 18.08633773055527 34.81066243426011 110.54378088321334 H 0.0 **** 0.06
35098 H 18.614753579507465 35.90544019362167 111.84407381422199 H 0.0 **** 0.06
35099 H 18.95005891005934 36.31488055449273 110.14421371876975 H 0.0 **** 0.06
35100 H 19.818441327243477 34.96980084775686 110.92280923301186 H 0.0 **** 0.06
35101 C 27.0899027493642 99.44926141944609 114.584552285031 C 0.0 **** -0.24
35102 H 27.05026215802357 99.62228911506094 113.50964293792622 H 0.0 **** 0.06
35103 H 27.28788370410706 100.39054951890574 115.09742984687298 H 0.0 **** 0.06
35104 H 27.885354889640155 98.73794156157754 114.80945481542223 H 0.0 **** 0.06
35105 H 26.135276540480106 99.04475586644406 114.92184328898553 H 0.0 **** 0.06
35106 C 27.924806389153247 98.22892602543419 19.437937012741884 C 0.0 **** -0.24
35107 H 27.685654426422246 97.72928917300203 20.377124708657448 H 0.0 **** 0.06
35108 H 27.054251269400822 98.20415010447502 18.782699612711724 H 0.0 **** 0.06
35109 H 28.75704032702407 97.71534756468355 18.955418590781846 H 0.0 **** 0.06
35110 H 28.20205039491455 99.26332466709039 19.636708849959973 H 0.0 **** 0.06
35111 C 54.297710722323245 97.86095108497881 48.323997583359855 C 0.0 **** -0.24
35112 H 53.476092825646134 98.17157945796765 48.969085291808454 H 0.0 **** 0.06
35113 H 54.943218179561256 97.16922805880881 48.86477709392308 H 0.0 **** 0.06
35114 H 54.87401371494323 98.73703554840952 48.02383247153418 H 0.0 **** 0.06
35115 H 53.89787670215367 97.36893396545653 47.43810821998025 H 0.0 **** 0.06
35116 C 34.57950954096622 90.87070725558479 47.09626339623691 C 0.0 **** -0.24
35117 H 35.54229524837787 91.1061227277159 46.64305334775726 H 0.0 **** 0.06
35118 H 34.12502789001253 91.7860016766785 47.47757005810058 H 0.0 **** 0.06
35119 H 34.725884878615574 90.16834251061502 47.916381138980086 H 0.0 **** 0.06
35120 H 33.92547118690387 90.4244613153769 46.347621639186535 H 0.0 **** 0.06
35121 C 52.73494631836047 114.82733737683384 117.49528608396544 C 0.0 **** -0.24
35122 H 51.71585634757622 114.4745783258341 117.65475027977288 H 0.0 **** 0.06
35123 H 53.35577987872449 114.53875470331974 118.3441605898686 H 0.0 **** 0.06
35124 H 52.73273264473747 115.91279330539129 117.39926723681295 H 0.0 **** 0.06
35125 H 53.13485738746647 114.38266714451328 116.58414030188409 H 0.0 **** 0.06
35126 C 75.65408335305938 109.16065147386689 55.8795828338503 C 0.0 **** -0.24
35127 H 74.71636054769678 108.87048231019824 55.406547020845004 H 0.0 **** 0.06
35128 H 75.51330419444503 109.22312394359719 56.95827347681021 H 0.0 **** 0.06
35129 H 75.96817803957637 110.13194657003166 55.49684726136963 H 0.0 **** 0.06
35130 H 76.41854881779008 108.41707289079562 55.654428291214565 H 0.0 **** 0.06
35131 C 121.4782581249643 117.66071379048282 106.48226498358639 C 0.0 **** -0.24
35132 H 120.5780699430347 117.3556484708148 105.95056167704615 H 0.0 **** 0.06
35133 H 122.32303486120085 117.67016948425146 105.79246568956765 H 0.0 **** 0.06
35134 H 121.67729859890454 116.95974299792056 107.2922581373511 H 0.0 **** 0.06
35135 H 121.33475874175416 118.6605867780332 106.89415231032103 H 0.0 **** 0.06
35136 C 47.79448280125621 13.713962768437796 90.41676840863892 C 0.0 **** -0.24
35137 H 48.36564611261551 14.641527266889852 90.36806778578602 H 0.0 **** 0.06
35138 H 48.22325625632163 12.986772857751419 89.72647256914505 H 0.0 **** 0.06
35139 H 46.75882967908845 13.909987912237852 90.14171968185951 H 0.0 **** 0.06
35140 H 47.832826757310585 13.318260408005813 91.43271359839508 H 0.0 **** 0.06
35141 C 28.05497223651531 70.1321727091752 2.388332929485074 C 0.0 **** -0.24
35142 H 29.129311830777226 70.21390860429767 2.549260662926798 H 0.0 **** 0.06
35143 H 27.866469530441805 69.7448918085297 1.3868378542479576 H 0.0 **** 0.06
35144 H 27.595326972935254 71.11571933917605 2.4905896779365406 H 0.0 **** 0.06
35145 H 27.62762192625496 69.45308049373469 3.1259592524870925 H 0.0 **** 0.06
35146 C 63.52116997223272 45.69392253017094 92.44899892299938 C 0.0 **** -0.24
35147 H 64.56768101530716 45.42475882722306 92.30876118821536 H 0.0 **** 0.06
35148 H 63.179578791118296 46.279649209864544 91.59458336572072 H 0.0 **** 0.06
35149 H 63.41607096360172 46.28401775036133 93.35944988976439 H 0.0 **** 0.06
35150 H 62.921045792276324 44.78755155527449 92.53152027731443 H 0.0 **** 0.06
35151 C 93.65719480528182 19.603971718476473 106.99680308445005 C 0.0 **** -0.24
35152 H 94.09915677607458 18.73003103972718 107.47504927619514 H 0.0 **** 0.06
35153 H 93.97392765556486 20.504800322263037 107.52381384142402 H 0.0 **** 0.06
35154 H 92.57049812789992 19.525962584655602 107.03125653079104 H 0.0 **** 0.06
35155 H 93.98598109581405 19.655263877991217 105.95940694364722 H 0.0 **** 0.06
35156 C 107.18030528608728 28.914172257307754 24.253106651520113 C 0.0 **** -0.24
35157 H 106.96845746158752 29.981452751741863 24.19779015559469 H 0.0 **** 0.06
35158 H 107.09557540315728 28.476670377057303 23.257735288489137 H 0.0 **** 0.06
35159 H 106.46565920852854 28.435411890956864 24.922539712265866 H 0.0 **** 0.06
35160 H 108.19100640051826 28.763162323700804 24.631407258246334 H 0.0 **** 0.06
35161 C 117.69271136232746 18.75621892111793 109.6910808370622 C 0.0 **** -0.24
35162 H 117.10496759141894 19.352361570884796 108.99345034931946 H 0.0 **** 0.06
35163 H 118.75206623855016 18.978553641451963 109.55621147420544 H 0.0 **** 0.06
35164 H 117.51588510506241 17.696899799642217 109.50183056344264 H 0.0 **** 0.06
35165 H 117.39792651427861 18.99706067249275 110.71283096128133 H 0.0 **** 0.06
35166 C 53.823042377146095 74.15054215559726 21.74441250537123 C 0.0 **** -0.24
35167 H 53.97036525321985 74.38248140108732 22.799223998996098 H 0.0 **** 0.06
35168 H 53.114106469581884 73.32824894355181 21.649160910639495 H 0.0 **** 0.06
35169 H 54.77505492634651 73.86339828411383 21.29887284735767 H 0.0 **** 0.06
35170 H 53.432009683144884 75.02862297902027 21.230901451577523 H 0.0 **** 0.06
35171 C 2.896470504275209 102.79593227841542 22.538593314816723 C 0.0 **** -0.24
35172 H 2.6484495393852985 103.19840287939832 21.556502616515104 H 0.0 **** 0.06
35173 H 2.2893759653922725 103.29176619175837 23.297048433834988 H 0.0 **** 0.06
35174 H 3.9511129299369774 102.97097495505454 22.74679620112616 H 0.0 **** 0.06
35175 H 2.6951884593974533 101.72517635007773 22.554479282447943 H 0.0 **** 0.06
35176 C 31.74773365669884 67.94240279150756 46.270857312017306 C 0.0 **** -0.24
35177 H 32.50328504251772 67.16159217515542 46.182499932166294 H 0.0 **** 0.06
35178 H 31.35462579073618 68.18277459406264 45.28241773397825 H 0.0 **** 0.06
35179 H 32.19597006647464 68.83350437216953 46.71095758967116 H 0.0 **** 0.06
35180 H 30.93674941071751 67.59166378243765 46.909768006029196 H 0.0 **** 0.06
35181 C 30.882998494344548 37.99862267405384 14.898642551292166 C 0.0 **** -0.24
35182 H 30.768584139277436 37.73793705700774 13.846175198469275 H 0.0 **** 0.06
35183 H 29.916219809101847 38.29486598927265 15.305880823154329 H 0.0 **** 0.06
35184 H 31.586731655968805 38.82540077068183 14.99309743062333 H 0.0 **** 0.06
35185 H 31.260931081719377 37.13530667386151 15.447222196505919 H 0.0 **** 0.06
35186 C 78.14348442261294 38.92872958379717 34.140527623953574 C 0.0 **** -0.24
35187 H 77.06578610699191 39.07354093540384 34.05198237401498 H 0.0 **** 0.06
35188 H 78.659947386184 39.63715354375912 33.492685328155346 H 0.0 **** 0.06
35189 H 78.39853141077737 37.91103727661947 33.844700749517784 H 0.0 **** 0.06
35190 H 78.44679929141009 39.092600558449824 35.174839740250434 H 0.0 **** 0.06
35191 C 112.78590310535583 92.66138937215922 103.30166147102409 C 0.0 **** -0.24
35192 H 112.46872759567478 93.00318583327643 102.31685135818333 H 0.0 **** 0.06
35193 H 113.57210274273646 91.91410748072104 103.19137063947255 H 0.0 **** 0.06
35194 H 111.93620787671185 92.22156301373573 103.82413724950976 H 0.0 **** 0.06
35195 H 113.16657420630014 93.50670116090367 103.87428663693083 H 0.0 **** 0.06
35196 C 66.41020684966247 86.66442143895918 72.31045553226653 C 0.0 **** -0.24
35197 H 66.12154719884214 87.64475705653444 71.93300521451474 H 0.0 **** 0.06
35198 H 65.91355627473436 86.4818481625199 73.26420467088775 H 0.0 **** 0.06
35199 H 67.4911862907241 86.63375205029936 72.45217372376933 H 0.0 **** 0.06
35200 H 66.11642810137795 85.89779162903895 71.59392578831745 H 0.0 **** 0.06
35201 C 62.665024754688005 97.43986846165058 3.1450339895557136 C 0.0 **** -0.24
35202 H 63.046643684655294 97.49608681264732 2.125843827105882 H 0.0 **** 0.06
35203 H 61.773103436150336 96.81449087861495 3.1648911991533737 H 0.0 **** 0.06
35204 H 62.41492825157866 98.44199935267142 3.4947161317992936 H 0.0 **** 0.06
35205 H 63.42651988493856 97.00765799243197 3.794216865910812 H 0.0 **** 0.06
35206 C 90.39996448737728 51.59573691645517 11.1314952075399 C 0.0 **** -0.24
35207 H 90.76911984716116 52.54591643948156 10.745895276418704 H 0.0 **** 0.06
35208 H 90.23015010314933 51.681325575772306 12.20511237634489 H 0.0 **** 0.06
35209 H 91.13769972869179 50.81599991026016 10.940610226021064 H 0.0 **** 0.06
35210 H 89.46499634376133 51.34067726962357 10.633580332749013 H 0.0 **** 0.06
35211 C 11.531719259706165 28.97492333679139 75.86405529772242 C 0.0 **** -0.24
35212 H 12.262632363743194 29.135145171982714 76.65644289809384 H 0.0 **** 0.06
35213 H 11.77072512473842 28.05529307500285 75.33042670083927 H 0.0 **** 0.06
35214 H 11.558315390814869 29.81535918523565 75.17008095416881 H 0.0 **** 0.06
35215 H 10.535379779000465 28.89477686432417 76.30036297350358 H 0.0 **** 0.06
35216 C 7.974963290637049 89.99754631370635 8.371458392674526 C 0.0 **** -0.24
35217 H 7.879792073957333 89.33527508039822 7.5104360740033655 H 0.0 **** 0.06
35218 H 8.916997193673808 89.79771367370944 8.881844674696339 H 0.0 **** 0.06
35219 H 7.145887687141482 89.82297073716174 9.056391293176574 H 0.0 **** 0.06
35220 H 7.95633558618897 91.0345286289062 8.034477860953473 H 0.0 **** 0.06
35221 C 120.83501088615014 73.9348063844908 60.71487423862835 C 0.0 **** -0.24
35222 H 120.59910249897047 74.9294594196925 61.09229265925979 H 0.0 **** 0.06
35223 H 120.62004985082694 73.89194466695892 59.64655180346249 H 0.0 **** 0.06
35224 H 120.23087491812845 73.19412726111156 61.23781614658912 H 0.0 **** 0.06
35225 H 121.89169636310919 73.72505355928976 60.88226214700888 H 0.0 **** 0.06
35226 C 51.187855757002495 122.64663690599126 83.79949596363099 C 0.0 **** -0.24
35227 H 50.418466625587136 121.87923288470455 83.70817442597371 H 0.0 **** 0.06
35228 H 51.75210637651205 122.486930260106 84.71842749910152 H 0.0 **** 0.06
35229 H 50.71869759929034 123.62938048654985 83.82626766575572 H 0.0 **** 0.06
35230 H 51.8608735443392 122.58848331082636 82.94410871685358 H 0.0 **** 0.06
35231 C 30.849774192812788 16.97473764124743 14.842221661922508 C 0.0 **** -0.24
35232 H 30.54758964503384 17.577943051911205 15.698401471938098 H 0.0 **** 0.06
35233 H 31.793316901456024 16.475316117960688 15.064683992159246 H 0.0 **** 0.06
35234 H 30.974738022849095 17.618410079607543 13.97095074265576 H 0.0 **** 0.06
35235 H 30.083177067935566 16.227830041761905 14.635639906869073 H 0.0 **** 0.06
35236 C 85.8524618784648 15.364293308156732 104.81957162837222 C 0.0 **** -0.24
35237 H 85.55769021766395 15.557791192056772 105.85183877717094 H 0.0 **** 0.06
35238 H 86.4220614120882 16.213215322965503 104.43928357459393 H 0.0 **** 0.06
35239 H 84.96262643180455 15.220097597975705 104.20875130250718 H 0.0 **** 0.06
35240 H 86.46982182389976 14.466094606830747 104.78132258043115 H 0.0 **** 0.06
35241 C 27.34653809873771 117.55684311412122 89.05553775608658 C 0.0 **** -0.24
35242 H 26.845487951290693 117.84508813452419 89.98003098334613 H 0.0 **** 0.06
35243 H 26.857037857215005 118.04064672401665 88.21033499551541 H 0.0 **** 0.06
35244 H 27.293364105420437 116.47451586979224 88.93680525878202 H 0.0 **** 0.06
35245 H 28.391381340231874 117.8669403690833 89.0977575130978 H 0.0 **** 0.06
35246 C 13.923681767177182 29.09097146254038 43.923793029321715 C 0.0 **** -0.24
35247 H 14.616669616768338 29.377436255491148 44.7147303714938 H 0.0 **** 0.06
35248 H 13.589879995857455 29.98247292709874 43.39293651389673 H 0.0 **** 0.06
35249 H 13.063847978088628 28.583897619453865 44.36090750950194 H 0.0 **** 0.06
35250 H 14.425743636601261 28.418559325467584 43.22742891239362 H 0.0 **** 0.06
35251 C 39.96340283348809 22.528816326596427 87.44198093843917 C 0.0 **** -0.24
35252 H 40.49020744208292 22.956752130646066 88.29525171354268 H 0.0 **** 0.06
35253 H 40.448216195936936 22.846170828053005 86.51886326334079 H 0.0 **** 0.06
35254 H 38.928025800490786 22.87203748771566 87.44556685227349 H 0.0 **** 0.06
35255 H 39.98523904373394 21.44061457527198 87.50934055832181 H 0.0 **** 0.06
35256 C 37.697721345412276 31.658292766891748 22.92143877425238 C 0.0 **** -0.24
35257 H 37.56584138147872 32.69699899634659 23.224311964514158 H 0.0 **** 0.06
35258 H 37.07309234027065 31.016994022275412 23.543755163757368 H 0.0 **** 0.06
35259 H 38.7436813469123 31.374520674762636 23.042096391467112 H 0.0 **** 0.06
35260 H 37.40912291892124 31.544225752955555 21.876634111473436 H 0.0 **** 0.06
35261 C 90.9928762183381 87.49469161794718 43.60559737437387 C 0.0 **** -0.24
35262 H 90.19637341031827 87.67988342193249 42.88533536122043 H 0.0 **** 0.06
35263 H 91.91358921795873 87.96557193698874 43.258099830390165 H 0.0 **** 0.06
35264 H 91.14998361211224 86.42005681053254 43.705294427086244 H 0.0 **** 0.06
35265 H 90.71328798633664 87.91191981841192 44.5731815819444 H 0.0 **** 0.06
35266 C 109.57949082211815 65.54494951608407 70.42743773314302 C 0.0 **** -0.24
35267 H 108.8972600674725 64.8277039287131 70.88459431110863 H 0.0 **** 0.06
35268 H 110.60866953853932 65.22390472586747 70.5939088915797 H 0.0 **** 0.06
35269 H 109.4280344428825 66.5266961660806 70.87651414985788 H 0.0 **** 0.06
35270 H 109.38450586659022 65.60070656875246 69.35676452806806 H 0.0 **** 0.06
35271 C 36.56048901940539 100.51184376367121 18.583417041333064 C 0.0 **** -0.24
35272 H 36.408551343509885 101.47264904198121 18.091380150722586 H 0.0 **** 0.06
35273 H 36.81114923241614 99.75692106345846 17.837622598801318 H 0.0 **** 0.06
35274 H 35.64599544853621 100.22043759587649 19.101212514040583 H 0.0 **** 0.06
35275 H 37.374073506257126 100.59628022092011 19.303259279300676 H 0.0 **** 0.06
35276 C 106.31790280493752 109.31195226345301 25.309509980292773 C 0.0 **** -0.24
35277 H 107.15735361128523 108.64012614558152 25.48916284378265 H 0.0 **** 0.06
35278 H 105.38509070598627 108.79872025447452 25.54497053192597 H 0.0 **** 0.06
35279 H 106.31230518973368 109.61495266527521 24.261830817303917 H 0.0 **** 0.06
35280 H 106.41675139960427 110.19453160413758 25.941229676280955 H 0.0 **** 0.06
35281 C 20.201483999397453 112.4064729216257 68.73945640218591 C 0.0 **** -0.24
35282 H 20.995841930720943 112.3157695766959 67.99909738918501 H 0.0 **** 0.06
35283 H 20.564305314147063 112.9784074248066 69.59426153858561 H 0.0 **** 0.06
35284 H 19.89835400499898 111.4127128101733 69.06948093311411 H 0.0 **** 0.06
35285 H 19.347756358983133 112.91828341315163 68.2956025417314 H 0.0 **** 0.06
35286 C 105.504931637125 58.40524533325088 74.04073174706087 C 0.0 **** -0.24
35287 H 106.13889955235373 57.74581855722905 73.44718967487591 H 0.0 **** 0.06
35288 H 106.03254740235488 58.69552949481403 74.94965026730716 H 0.0 **** 0.06
35289 H 104.5842138890969 57.88396009210006 74.30428003541289 H 0.0 **** 0.06
35290 H 105.26400039490684 59.296472218060565 73.46027161038808 H 0.0 **** 0.06
35291 C 100.53999983853487 47.13205120517046 45.635516445359485 C 0.0 **** -0.24
35292 H 99.593836682637 47.54473960297823 45.98563028201761 H 0.0 **** 0.06
35293 H 100.64984053075011 46.11226184280416 46.005037533396944 H 0.0 **** 0.06
35294 H 101.36206561112502 47.7440132504676 46.005498064108224 H 0.0 **** 0.06
35295 H 100.55313215721804 47.12772397987262 44.5452284137333 H 0.0 **** 0.06
35296 C 116.58319700440455 53.89919491810582 42.80946753269956 C 0.0 **** -0.24
35297 H 117.67021486818993 53.97862559227849 42.846523261584764 H 0.0 **** 0.06
35298 H 116.17623510957998 54.018793069017136 43.814037332222 H 0.0 **** 0.06
35299 H 116.3044489993448 52.92084867999637 42.417807825945005 H 0.0 **** 0.06
35300 H 116.18408962961183 54.67812330858098 42.15958138127917 H 0.0 **** 0.06
35301 C 37.07070268897084 107.4719408261335 110.2872227999635 C 0.0 **** -0.24
35302 H 36.12827321549949 108.01947460149648 110.31393634794188 H 0.0 **** 0.06
35303 H 37.733218657167015 107.9262905398991 109.54957306212202 H 0.0 **** 0.06
35304 H 36.87953299292917 106.43432466170827 110.01391352460428 H 0.0 **** 0.06
35305 H 37.54005832382279 107.50763312018455 111.27004905351157 H 0.0 **** 0.06
35306 C 0.13240417127494197 110.08533924231344 83.59047423908882 C 0.0 **** -0.24
35307 H -0.4506929247442599 110.2644456151433 84.49297672045893 H 0.0 **** 0.06
35308 H 0.7714777551921657 110.94685504003544 83.39291234964028 H 0.0 **** 0.06
35309 H -0.540605935607573 109.93119271090544 82.74770243790445 H 0.0 **** 0.06
35310 H 0.7514940433953825 109.19799409346172 83.72817874309752 H 0.0 **** 0.06
35311 C 80.87060261933414 44.9525311002513 18.710735221833204 C 0.0 **** -0.24
35312 H 80.17756269097299 44.57298767605383 17.960216367964893 H 0.0 **** 0.06
35313 H 80.70457315969753 44.43161647621158 19.653697205006296 H 0.0 **** 0.06
35314 H 80.70472272205427 46.02055933697703 18.849899314042315 H 0.0 **** 0.06
35315 H 81.89475187441013 44.78396275293032 18.377038989884603 H 0.0 **** 0.06
35316 C 18.236896598833937 99.37255372363882 112.64201589118896 C 0.0 **** -0.24
35317 H 18.572047700104093 100.15794874434744 113.31919792735589 H 0.0 **** 0.06
35318 H 17.278658111582516 98.98212750045604 112.9854959115782 H 0.0 **** 0.06
35319 H 18.97318176553867 98.56794043377852 112.62725692349754 H 0.0 **** 0.06
35320 H 18.125556598136043 99.78084141450745 111.63803848249526 H 0.0 **** 0.06
35321 C 70.41802182622723 49.17856724447688 114.18348422918544 C 0.0 **** -0.24
35322 H 71.33537122004958 48.71417781489112 114.5453898520251 H 0.0 **** 0.06
35323 H 70.41039751779857 50.232118714653716 114.46166809010083 H 0.0 **** 0.06
35324 H 69.55808006634709 48.67869369860701 114.62965320577675 H 0.0 **** 0.06
35325 H 70.36919118462458 49.08743546080609 113.09852769556133 H 0.0 **** 0.06
35326 C 68.5462992615256 35.226516344095586 79.9584651783693 C 0.0 **** -0.24
35327 H 68.42548760042777 34.523853274587225 79.13448688002595 H 0.0 **** 0.06
35328 H 68.91023315042486 36.17920136568853 79.5731140030814 H 0.0 **** 0.06
35329 H 69.2634751046358 34.82678585350746 80.67522278103388 H 0.0 **** 0.06
35330 H 67.58526971015351 35.3766717258828 80.45155214454874 H 0.0 **** 0.06
35331 C 35.05662795135996 106.99875629732577 5.4312396133946095 C 0.0 **** -0.24
35332 H 35.01321192852731 107.91250593436834 4.8394992003610895 H 0.0 **** 0.06
35333 H 34.44173829159439 107.11464658872879 6.32489300761074 H 0.0 **** 0.06
35334 H 36.08928134211334 106.80368533399502 5.722940661706687 H 0.0 **** 0.06
35335 H 34.68313992337957 106.1633082737149 4.838324381068361 H 0.0 **** 0.06
35336 C 12.632684139101173 6.302063262040406 61.88001611756494 C 0.0 **** -0.24
35337 H 12.166050419954331 6.322011443375516 62.8651979313263 H 0.0 **** 0.06
35338 H 11.859544236184547 6.284613231860902 61.111512151107355 H 0.0 **** 0.06
35339 H 13.253938880084206 5.410702871401128 61.79066652293945 H 0.0 **** 0.06
35340 H 13.251996311804476 7.190304114708539 61.753680174390404 H 0.0 **** 0.06
35341 C 67.39310717583015 72.25644941817046 53.87551689624718 C 0.0 **** -0.24
35342 H 67.20976664780434 71.26698057630153 53.456061512616884 H 0.0 **** 0.06
35343 H 66.46375579961185 72.82651840518369 53.8797039477854 H 0.0 **** 0.06
35344 H 68.13623929060245 72.77576980927364 53.27086733724593 H 0.0 **** 0.06
35345 H 67.76143293348079 72.15479812122933 54.89730082008043 H 0.0 **** 0.06
35346 C 75.90319621731169 59.966532143576266 43.855449965785965 C 0.0 **** -0.24
35347 H 76.9433401255819 60.15270528029264 44.12181495861671 H 0.0 **** 0.06
35348 H 75.25287200576153 60.35142996397517 44.641533464235465 H 0.0 **** 0.06
35349 H 75.74265177988465 58.893708147573186 43.74317639487771 H 0.0 **** 0.06
35350 H 75.67433085642071 60.46909771900281 42.91568956119926 H 0.0 **** 0.06
35351 C 6.01398135027037 87.32553468830156 115.8617530726192 C 0.0 **** -0.24
35352 H 6.926370263310645 87.59194254128067 115.32808607598693 H 0.0 **** 0.06
35353 H 5.161439719796078 87.81362274803286 115.38917931223708 H 0.0 **** 0.06
35354 H 6.092236735484761 87.6525533682831 116.89871933114266 H 0.0 **** 0.06
35355 H 5.878001004916371 86.24471415446538 115.83090795449239 H 0.0 **** 0.06
35356 C 21.537238468793433 63.23903066010402 44.34750243231696 C 0.0 **** -0.24
35357 H 20.712606112498868 63.91978601937484 44.13411828178906 H 0.0 **** 0.06
35358 H 22.374386679082512 63.46609832619427 43.6867223414358 H 0.0 **** 0.06
35359 H 21.211971259276638 62.21160226238919 44.183687698745615 H 0.0 **** 0.06
35360 H 21.850247923394207 63.36078586517314 45.384336008617055 H 0.0 **** 0.06
35361 C 114.739335492463 21.859516468153657 62.207895025788275 C 0.0 **** -0.24
35362 H 114.23723327436137 20.958739163054958 62.56023678203621 H 0.0 **** 0.06
35363 H 114.1626998754598 22.736390816441542 62.50391854549969 H 0.0 **** 0.06
35364 H 114.82179122671535 21.82878330200967 61.121096195959126 H 0.0 **** 0.06
35365 H 115.73597842329603 21.91508326409857 62.64638944979296 H 0.0 **** 0.06
35366 C 120.04576312932394 102.69004539915957 11.420300678508923 C 0.0 **** -0.24
35367 H 119.86223347709492 101.80823674915845 12.034015180725035 H 0.0 **** 0.06
35368 H 120.99053052452442 103.14776201040448 11.715783798348639 H 0.0 **** 0.06
35369 H 119.23583532075028 103.40511246580925 11.560268878508012 H 0.0 **** 0.06
35370 H 120.09627736699323 102.3979293566527 10.371743757294581 H 0.0 **** 0.06
35371 C 74.52863021777654 6.940004117522875 89.29787303136112 C 0.0 **** -0.24
35372 H 74.04362630083318 6.906207339060387 90.27350058016629 H 0.0 **** 0.06
35373 H 75.51747133607543 6.486086416234315 89.36818043263634 H 0.0 **** 0.06
35374 H 74.62713123303678 7.976839704538065 88.97698423096529 H 0.0 **** 0.06
35375 H 73.92635117251658 6.3914440263195615 88.57446454059033 H 0.0 **** 0.06
35376 C 20.199071486441607 111.09376586512695 118.40912904426177 C 0.0 **** -0.24
35377 H 19.16895235722255 110.74201492507183 118.35892002577012 H 0.0 **** 0.06
35378 H 20.608447489421813 110.8821111854445 119.39765208154262 H 0.0 **** 0.06
35379 H 20.225088098385818 112.16850208771524 118.22745529168314 H 0.0 **** 0.06
35380 H 20.79507736649711 110.5835624582648 117.65218411522106 H 0.0 **** 0.06
35381 C 50.114942034943766 83.06256456942805 70.3325684636942 C 0.0 **** -0.24
35382 H 51.03961728289232 82.50965657222739 70.50165018761538 H 0.0 **** 0.06
35383 H 50.20848571362683 83.65498363155456 69.42222601022291 H 0.0 **** 0.06
35384 H 49.92793789350824 83.72345811386342 71.17884223354656 H 0.0 **** 0.06
35385 H 49.28643319930643 82.3627121526068 70.22816645995786 H 0.0 **** 0.06
35386 C 79.17238185456065 16.65091083105085 107.05649890656255 C 0.0 **** -0.24
35387 H 78.73502553454645 17.647155615224563 107.12865816055626 H 0.0 **** 0.06
35388 H 78.50566073588536 16.003476194680957 106.48581287967977 H 0.0 **** 0.06
35389 H 79.30795950691643 16.240225795043898 108.05708455345854 H 0.0 **** 0.06
35390 H 80.13730058071764 16.713204923088483 106.55447165166692 H 0.0 **** 0.06
35391 C 8.03706912942603 59.02497880580719 86.86199718083097 C 0.0 **** -0.24
35392 H 7.207351786363532 58.40361014538052 86.524368285447 H 0.0 **** 0.06
35393 H 7.709155260816999 60.06291271299494 86.928132570374 H 0.0 **** 0.06
35394 H 8.860260389932677 58.94841374732912 86.15239587697391 H 0.0 **** 0.06
35395 H 8.369071398261923 58.68512170958653 87.84289817747515 H 0.0 **** 0.06
35396 C 53.24854683421114 55.49046916192762 41.12947234461629 C 0.0 **** -0.24
35397 H 52.38157914160547 54.83359833039407 41.19838421839002 H 0.0 **** 0.06
35398 H 54.06696884176199 54.96104238916428 40.64216052464309 H 0.0 **** 0.06
35399 H 53.555375984420095 55.792940189266574 42.13059634645643 H 0.0 **** 0.06
35400 H 52.98885950550772 56.37428784475401 40.546919216275654 H 0.0 **** 0.06
35401 C 48.24995160034378 79.81392953386933 8.875749817942335 C 0.0 **** -0.24
35402 H 48.92421790747942 80.55743754525352 8.4492970305065 H 0.0 **** 0.06
35403 H 47.336834849179624 80.30254632070867 9.213444173784637 H 0.0 **** 0.06
35404 H 48.736373507250995 79.32657532309867 9.721785178129323 H 0.0 **** 0.06
35405 H 48.005196975300464 79.0693999535394 8.118384654000721 H 0.0 **** 0.06
35406 C 109.77559955377109 69.58448199639116 52.732608477562586 C 0.0 **** -0.24
35407 H 110.14878999104701 70.22915444641058 51.93693866467874 H 0.0 **** 0.06
35408 H 109.76303858103716 70.1367082715031 53.67262843913661 H 0.0 **** 0.06
35409 H 110.42561178611902 68.71407210293421 52.83086802111385 H 0.0 **** 0.06
35410 H 108.76492056025393 69.25699582319547 52.490061829068566 H 0.0 **** 0.06
35411 C 79.63529652236141 67.21216057767839 64.41009304957126 C 0.0 **** -0.24
35412 H 78.84203469590909 66.49187832141504 64.60610372641466 H 0.0 **** 0.06
35413 H 79.97324001725349 67.64501224725075 65.35168996935843 H 0.0 **** 0.06
35414 H 79.25644700566085 68.00302977197191 63.76232293724246 H 0.0 **** 0.06
35415 H 80.46946695414704 66.70969964189283 63.9204658194179 H 0.0 **** 0.06
35416 C 88.64885101836035 68.45969201499324 67.30113073378172 C 0.0 **** -0.24
35417 H 88.19274011084516 68.91314551916 66.42162073484906 H 0.0 **** 0.06
35418 H 89.13273842470491 67.5239809979443 67.01834974649589 H 0.0 **** 0.06
35419 H 87.88029833350822 68.26023605767472 68.04732385485232 H 0.0 **** 0.06
35420 H 89.39111217864507 69.140860407948 67.71793422576025 H 0.0 **** 0.06
35421 C 47.470525745908844 108.53345831564667 63.45182593379031 C 0.0 **** -0.24
35422 H 47.812845266583395 107.57750441378323 63.055181727259985 H 0.0 **** 0.06
35423 H 46.38712471670766 108.60129461948816 63.35118997431399 H 0.0 **** 0.06
35424 H 47.939115606297094 109.34590736857547 62.89668523707049 H 0.0 **** 0.06
35425 H 47.74292856936745 108.60802018535423 64.50512286220638 H 0.0 **** 0.06
35426 C 73.61868813715833 12.680934075442082 111.26579876404105 C 0.0 **** -0.24
35427 H 73.08991876282658 11.825491522548262 111.68694143830163 H 0.0 **** 0.06
35428 H 73.46955741624194 13.550847021835708 111.90650985387776 H 0.0 **** 0.06
35429 H 73.2313115871587 12.89142592214786 110.26900554957646 H 0.0 **** 0.06
35430 H 74.68326989082283 12.454557977226557 111.20145814371219 H 0.0 **** 0.06
35431 C 120.68889145301844 10.573455018466554 93.35624011469682 C 0.0 **** -0.24
35432 H 121.74604578001089 10.445093353083656 93.5850195842765 H 0.0 **** 0.06
35433 H 120.26013526480708 11.319606021335794 94.02532377845338 H 0.0 **** 0.06
35434 H 120.17030161230724 9.623844388402095 93.49013703974902 H 0.0 **** 0.06
35435 H 120.57749055583733 10.905474352837615 92.32328647758487 H 0.0 **** 0.06
35436 C 31.229275789296935 15.989614456380593 94.03712279958751 C 0.0 **** -0.24
35437 H 31.21017415855289 15.594152784903798 93.02224436006978 H 0.0 **** 0.06
35438 H 31.4172355361394 15.177304005644459 94.74031770928059 H 0.0 **** 0.06
35439 H 30.26926360729965 16.452456856836477 94.26476424495289 H 0.0 **** 0.06
35440 H 32.02035933860776 16.734703723842586 94.12256833832248 H 0.0 **** 0.06
35441 C 122.41626179474734 14.013092356613864 107.1743849262605 C 0.0 **** -0.24
35442 H 121.70789848739089 13.61506546904429 107.90037053475683 H 0.0 **** 0.06
35443 H 123.2881619372622 14.407736580421748 107.69675763569063 H 0.0 **** 0.06
35444 H 121.9415094298375 14.81196264016413 106.60502337863196 H 0.0 **** 0.06
35445 H 122.72718526445406 13.218894708735192 106.49588894007437 H 0.0 **** 0.06
35446 C 9.604075042944089 120.45586836052036 68.2365094574717 C 0.0 **** -0.24
35447 H 10.319886341444914 119.8525457864139 67.67757187223486 H 0.0 **** 0.06
35448 H 9.910709765771173 121.50079845045848 68.21126473300126 H 0.0 **** 0.06
35449 H 9.568295289925317 120.11236186740317 69.27028807037442 H 0.0 **** 0.06
35450 H 8.615743912680045 120.35508015656538 67.78682456378152 H 0.0 **** 0.06
35451 C 40.09916109325471 83.83002413323038 75.0387592455968 C 0.0 **** -0.24
35452 H 39.90635313464381 84.2665355128471 74.05869647038995 H 0.0 **** 0.06
35453 H 40.883051600878815 84.3985528323264 75.54070147923377 H 0.0 **** 0.06
35454 H 40.42033760817617 82.79543187250306 74.91877749743787 H 0.0 **** 0.06
35455 H 39.18852165037754 83.86119496537992 75.63599140122912 H 0.0 **** 0.06
35456 C 91.1875843560743 99.56944557389781 98.31321592972199 C 0.0 **** -0.24
35457 H 90.29024403874945 99.01226586371595 98.58221267774977 H 0.0 **** 0.06
35458 H 90.90458608179443 100.48582627383664 97.79472239008655 H 0.0 **** 0.06
35459 H 91.81137995545731 98.95974206324752 97.65831754051786 H 0.0 **** 0.06
35460 H 91.74457458806722 99.81815613849204 99.2163504965873 H 0.0 **** 0.06
35461 C 111.57846676637273 99.26144372850572 0.4910631707271591 C 0.0 **** -0.24
35462 H 112.27237692464662 99.42439341790137 -0.33367692704160845 H 0.0 **** 0.06
35463 H 111.20131065351896 100.22124173384594 0.8427137497926225 H 0.0 **** 0.06
35464 H 112.09604433950844 98.7528145120578 1.3053395307251918 H 0.0 **** 0.06
35465 H 110.7467641243471 98.64573905705913 0.14911934178870467 H 0.0 **** 0.06
35466 C 94.81298026656407 51.090757266768684 9.751440396792912 C 0.0 **** -0.24
35467 H 94.44880523231726 50.41793682441582 8.975471783427786 H 0.0 **** 0.06
35468 H 94.58257821452355 50.673589616583975 10.731247582615328 H 0.0 **** 0.06
35469 H 94.3281267874701 52.06162907245772 9.645321518851585 H 0.0 **** 0.06
35470 H 95.89132939798677 51.21034417508246 9.651149815011824 H 0.0 **** 0.06
35471 C 90.61529944976326 111.58136369586036 91.94039213002094 C 0.0 **** -0.24
35472 H 91.34977690456412 112.38155301541022 92.03571836901341 H 0.0 **** 0.06
35473 H 90.92538511024836 110.89656164746947 91.15069712467817 H 0.0 **** 0.06
35474 H 89.6433245470447 112.00816078807667 91.69143791262582 H 0.0 **** 0.06
35475 H 90.54322778861194 111.0404924446907 92.88362012800513 H 0.0 **** 0.06
35476 C 42.61833842301357 113.19457035002685 74.60652857128278 C 0.0 **** -0.24
35477 H 43.43828051340583 113.20009047013394 75.32494324640354 H 0.0 **** 0.06
35478 H 42.66748965378136 112.28546773554653 74.00664128360279 H 0.0 **** 0.06
35479 H 42.70061143395645 114.06454880759797 73.95588834750973 H 0.0 **** 0.06
35480 H 41.66865798299685 113.22756163274293 75.13997654004865 H 0.0 **** 0.06
35481 C 88.38156596787945 41.18309093014224 90.54395636285804 C 0.0 **** -0.24
35482 H 89.20239631837131 41.536568275155474 91.16857742683962 H 0.0 **** 0.06
35483 H 88.54750773834229 40.137903718821605 90.28296757130113 H 0.0 **** 0.06
35484 H 88.3333084755406 41.78208773757163 89.63475773239557 H 0.0 **** 0.06
35485 H 87.44334446629244 41.27751803061662 91.09124796636408 H 0.0 **** 0.06
35486 C 81.57548629395171 68.31608063955278 103.56859384063739 C 0.0 **** -0.24
35487 H 81.67019505271548 68.0216782619355 104.61381755927738 H 0.0 **** 0.06
35488 H 81.70276633261761 67.44047990668577 102.93196028689545 H 0.0 **** 0.06
35489 H 82.33964047416762 69.05563166445526 103.32847340611823 H 0.0 **** 0.06
35490 H 80.58716519289632 68.74586900061195 103.40102720612524 H 0.0 **** 0.06
35491 C 69.95045959831808 100.88902642571509 58.673779908724576 C 0.0 **** -0.24
35492 H 70.73026999245451 100.77675982113311 59.4282672785066 H 0.0 **** 0.06
35493 H 70.24255374272252 101.66018475311728 57.96158406116508 H 0.0 **** 0.06
35494 H 69.01608575208277 101.17625841083313 59.157936427779255 H 0.0 **** 0.06
35495 H 69.81240041529381 99.94236222022812 58.15056129034463 H 0.0 **** 0.06
35496 C 59.73434239827273 2.927699805704407 41.64796652334083 C 0.0 **** -0.24
35497 H 59.90676959166396 3.738910452382271 42.355261565357345 H 0.0 **** 0.06
35498 H 60.59969147075515 2.827312104454194 40.99160647650767 H 0.0 **** 0.06
35499 H 58.84881008795162 3.1475222780116496 41.0511158120664 H 0.0 **** 0.06
35500 H 59.58293103869423 1.9960032881133145 42.19343270148836 H 0.0 **** 0.06
35501 C 112.2303156287046 35.2110934001943 32.407340782184555 C 0.0 **** -0.24
35502 H 112.37468743765902 34.97792302130861 31.352578503817817 H 0.0 **** 0.06
35503 H 112.92250954201268 34.619708505792204 33.00737050377959 H 0.0 **** 0.06
35504 H 111.20627287703297 34.97297268598061 32.694170124087556 H 0.0 **** 0.06
35505 H 112.4175608153189 36.271553538174516 32.57422586455102 H 0.0 **** 0.06
35506 C 87.95109886228781 77.04476023365163 56.6186096734441 C 0.0 **** -0.24
35507 H 87.49232424586432 77.3269703786653 57.56610342068825 H 0.0 **** 0.06
35508 H 87.8020704908169 77.84267921165397 55.89101089095789 H 0.0 **** 0.06
35509 H 87.48973927513185 76.12754494497435 56.250830328184804 H 0.0 **** 0.06
35510 H 89.01810501650709 76.8813395006413 56.766188797906636 H 0.0 **** 0.06
35511 C 29.66468308026589 25.454840652401316 38.82954588799316 C 0.0 **** -0.24
35512 H 30.09719768150481 25.622729508124536 39.81598118365173 H 0.0 **** 0.06
35513 H 30.195947117669533 26.058084204996334 38.093198224295065 H 0.0 **** 0.06
35514 H 28.61254543113762 25.7390404500982 38.841709799715545 H 0.0 **** 0.06
35515 H 29.753324177294985 24.400380777915473 38.56876391291132 H 0.0 **** 0.06
35516 C 42.80897465457713 50.05913903202543 36.47628249377495 C 0.0 **** -0.24
35517 H 42.500992212509885 49.40902487364733 35.657387796704576 H 0.0 **** 0.06
35518 H 42.92806459276869 51.07812751260773 36.106407838855354 H 0.0 **** 0.06
35519 H 43.75773776614767 49.70676040615555 36.88286468271636 H 0.0 **** 0.06
35520 H 42.049104046882235 50.04264333569109 37.258469656823635 H 0.0 **** 0.06
35521 C 59.79071794090595 44.572062944350094 52.25541825253532 C 0.0 **** -0.24
35522 H 60.10541631339635 45.42054533488368 51.64739380650559 H 0.0 **** 0.06
35523 H 58.78810834133981 44.75483693244154 52.64137130777863 H 0.0 **** 0.06
35524 H 60.484000141491805 44.444818841193566 53.08768319548358 H 0.0 **** 0.06
35525 H 59.78698855572702 43.66943162084433 51.64459348112439 H 0.0 **** 0.06
35526 C 15.880269358613873 45.99047451908995 51.6482283696314 C 0.0 **** -0.24
35527 H 16.137548952454893 47.04482396414559 51.75020187261974 H 0.0 **** 0.06
35528 H 16.305291530856437 45.600149648737 50.722931207986164 H 0.0 **** 0.06
35529 H 14.795894539154915 45.88234667058329 51.62465403648122 H 0.0 **** 0.06
35530 H 16.28348023890095 45.435183871878536 52.495707850483086 H 0.0 **** 0.06
35531 C 95.23006067413027 35.25375690340016 16.15589311032292 C 0.0 **** -0.24
35532 H 95.23182301269281 34.17595234727028 15.99597339899492 H 0.0 **** 0.06
35533 H 95.02818813808517 35.76027298798675 15.211543535064664 H 0.0 **** 0.06
35534 H 96.20298090573755 35.56606154310492 16.535760430619064 H 0.0 **** 0.06
35535 H 94.45720755077562 35.51185467659863 16.87919364357836 H 0.0 **** 0.06
35536 C 31.03421495221442 8.341561820938523 92.9401328073046 C 0.0 **** -0.24
35537 H 31.263041695331665 7.567877416801508 92.20654303825677 H 0.0 **** 0.06
35538 H 31.839142525482337 9.077419999697213 92.95425919237627 H 0.0 **** 0.06
35539 H 30.93817727004491 7.888316988950237 93.92681158979983 H 0.0 **** 0.06
35540 H 30.097887861515808 8.830479839761239 92.67106426268583 H 0.0 **** 0.06
35541 C 15.515547317345693 27.67615813246323 110.11614542985163 C 0.0 **** -0.24
35542 H 16.535994413516022 27.930261344724954 110.40387871296528 H 0.0 **** 0.06
35543 H 14.815424428117893 28.14035162778731 110.81161328385025 H 0.0 **** 0.06
35544 H 15.389655074329482 26.59443801542426 110.14161654938516 H 0.0 **** 0.06
35545 H 15.321266069695099 28.04098196832541 109.1073458869011 H 0.0 **** 0.06
35546 C 117.99078052364086 119.01936357789276 0.9936141620259491 C 0.0 **** -0.24
35547 H 117.08276482049806 118.73460577989661 0.4608621738523766 H 0.0 **** 0.06
35548 H 118.05755075790768 118.45333829985788 1.9236767122581 H 0.0 **** 0.06
35549 H 117.96126974984284 120.08494514333276 1.2168899200793817 H 0.0 **** 0.06
35550 H 118.85962353909758 118.80065670408806 0.37277259572022103 H 0.0 **** 0.06
35551 C 31.40014097369837 1.1145854211657706 87.52523015835578 C 0.0 **** -0.24
35552 H 31.049750225524107 1.194519038788087 86.49684064357822 H 0.0 **** 0.06
35553 H 31.588170201636828 2.1118931451720755 87.92460782283538 H 0.0 **** 0.06
35554 H 32.32196198431052 0.5332271465177314 87.55044374093967 H 0.0 **** 0.06
35555 H 30.6409103114675 0.6179498687340015 88.1302038045836 H 0.0 **** 0.06
35556 C 71.37997858478599 108.76509810615894 15.287378918290937 C 0.0 **** -0.24
35557 H 71.88436086841978 109.72641755628737 15.375557465734097 H 0.0 **** 0.06
35558 H 70.86436859721726 108.5381691119508 16.22142431088447 H 0.0 **** 0.06
35559 H 72.11483356156378 107.98772238459858 15.078797364330029 H 0.0 **** 0.06
35560 H 70.65519341117835 108.80888273316495 14.473879355713507 H 0.0 **** 0.06
35561 C 10.195332160457866 31.107432681022743 4.948120815732835 C 0.0 **** -0.24
35562 H 9.90046389769418 31.431501330432383 5.94654727137231 H 0.0 **** 0.06
35563 H 9.32272946967575 30.722613658550102 4.418529371252987 H 0.0 **** 0.06
35564 H 10.946554647570053 30.32188111594334 5.029044455620294 H 0.0 **** 0.06
35565 H 10.61032485366104 31.951961522910807 4.399493313323518 H 0.0 **** 0.06
35566 C 97.14940866096 74.35881313956912 2.392539013278082 C 0.0 **** -0.24
35567 H 96.9461390759819 74.08465496974404 3.428165371090998 H 0.0 **** 0.06
35568 H 98.00734595347475 73.79306817067862 2.0296735501880505 H 0.0 **** 0.06
35569 H 97.36526833175918 75.42578764627538 2.3349356508908414 H 0.0 **** 0.06
35570 H 96.27762950509387 74.13068862586675 1.780266710467174 H 0.0 **** 0.06
35571 C 51.25763859414361 73.54337320134655 98.24183899105259 C 0.0 **** -0.24
35572 H 50.38618710958538 73.09445059238055 98.71727970150093 H 0.0 **** 0.06
35573 H 51.49268193979931 74.48784116834688 98.7330314565684 H 0.0 **** 0.06
35574 H 51.04401228975592 73.72435998791761 97.18881825689692 H 0.0 **** 0.06
35575 H 52.108187518248975 72.86672269519798 98.33061854297571 H 0.0 **** 0.06
35576 C 53.66352886331982 113.6366372811297 71.99593400517085 C 0.0 **** -0.24
35577 H 53.00977082867579 113.29736962619324 71.19135453932918 H 0.0 **** 0.06
35578 H 53.446047750407025 113.0733886754069 72.90326034409381 H 0.0 **** 0.06
35579 H 53.494124978719604 114.69814452104725 72.17663219302327 H 0.0 **** 0.06
35580 H 54.70335490315227 113.47791517621957 71.70928568926547 H 0.0 **** 0.06
35581 C 108.65165836920619 2.9719963826990465 52.91612830159991 C 0.0 **** -0.24
35582 H 109.65588516806935 2.573034558821874 52.77223201140811 H 0.0 **** 0.06
35583 H 107.91757539430472 2.2291646743845774 52.600517006159635 H 0.0 **** 0.06
35584 H 108.53081908416712 3.8773151921201787 52.32177250408833 H 0.0 **** 0.06
35585 H 108.50183031923274 3.205539845188383 53.97035795009239 H 0.0 **** 0.06
35586 C 33.174037851278904 4.03767450564132 67.69170444504545 C 0.0 **** -0.24
35587 H 33.77980011652598 4.4959257200747516 66.91039849252437 H 0.0 **** 0.06
35588 H 33.23300720273446 2.952623014255451 67.60800265272263 H 0.0 **** 0.06
35589 H 32.13744850168548 4.355371140738697 67.58103613493375 H 0.0 **** 0.06
35590 H 33.546906494428306 4.348344271833739 68.6686156491102 H 0.0 **** 0.06
35591 C 74.26298967287863 94.84325552807391 113.71705896258402 C 0.0 **** -0.24
35592 H 75.28348691850371 94.56763236226311 113.45063564185789 H 0.0 **** 0.06
35593 H 73.76502485805884 95.27725306515066 112.84959579345059 H 0.0 **** 0.06
35594 H 74.28515222384706 95.5721913782761 114.5267709123911 H 0.0 **** 0.06
35595 H 73.72018480336627 93.95503913976225 114.04201235795358 H 0.0 **** 0.06
35596 C 96.2266009350596 44.60725134507601 96.47643780863564 C 0.0 **** -0.24
35597 H 97.20142064509474 44.324883090048516 96.08012256391845 H 0.0 **** 0.06
35598 H 96.09436532602894 44.165282323054626 97.46382640351067 H 0.0 **** 0.06
35599 H 95.44372203756518 44.24722575380959 95.80839411736443 H 0.0 **** 0.06
35600 H 96.16785528194106 45.693299837548295 96.55389616296387 H 0.0 **** 0.06
35601 C 83.14160974733005 61.44674210885006 66.28604053101009 C 0.0 **** -0.24
35602 H 82.17713203619942 61.530754215092884 65.78580477964522 H 0.0 **** 0.06
35603 H 83.48083962942775 62.43705238129348 66.58966822038175 H 0.0 **** 0.06
35604 H 83.86782574060064 61.00715726941303 65.60280953661808 H 0.0 **** 0.06
35605 H 83.03934026213344 60.81167061532864 67.16632134482938 H 0.0 **** 0.06
35606 C 87.38314853887388 70.42634739076658 5.698147209344896 C 0.0 **** -0.24
35607 H 86.75772474589394 70.11606660052507 4.861114929978129 H 0.0 **** 0.06
35608 H 86.7565066869335 70.84941361253675 6.483602566762112 H 0.0 **** 0.06
35609 H 88.09748141733024 71.17642379895756 5.359529402817191 H 0.0 **** 0.06
35610 H 87.92153977283002 69.5623055682064 6.088759277472036 H 0.0 **** 0.06
35611 C 54.69731806446069 16.020808072805693 3.595559805914604 C 0.0 **** -0.24
35612 H 55.74358978613313 15.796247096987287 3.8020082525859493 H 0.0 **** 0.06
35613 H 54.06165824916337 15.33023038982796 4.149175336637143 H 0.0 **** 0.06
35614 H 54.50713318333396 15.91470853148499 2.5270132277993866 H 0.0 **** 0.06
35615 H 54.47798683011581 17.04388850922416 3.9028567668593155 H 0.0 **** 0.06
35616 C 57.46512902489451 105.53881129594578 119.34719675810518 C 0.0 **** -0.24
35617 H 58.16349214770548 104.94421324372254 119.93635314534164 H 0.0 **** 0.06
35618 H 56.58956390141475 104.9360062732616 119.10624666969787 H 0.0 **** 0.06
35619 H 57.95049205619068 105.86104874770615 118.42600520560097 H 0.0 **** 0.06
35620 H 57.15922396856695 106.41338500818273 119.92206899943153 H 0.0 **** 0.06
35621 C 66.61266835500706 50.439255578798196 20.42491174914403 C 0.0 **** -0.24
35622 H 66.91679894365646 50.48170483182358 19.3790538353486 H 0.0 **** 0.06
35623 H 67.34746042224793 49.87004274303999 20.99468145711859 H 0.0 **** 0.06
35624 H 65.63890313798402 49.95568415969808 20.50058933047103 H 0.0 **** 0.06
35625 H 66.54719319206592 51.45200920915866 20.82509961494793 H 0.0 **** 0.06
35626 C 95.71018318741511 57.623824348723076 55.85178796178428 C 0.0 **** -0.24
35627 H 95.13497001867864 58.03556908429937 56.681081766181535 H 0.0 **** 0.06
35628 H 96.70353832531083 58.07191665973846 55.84092724031251 H 0.0 **** 0.06
35629 H 95.20087830910634 57.84200514324192 54.91351413757758 H 0.0 **** 0.06
35630 H 95.79918305842298 56.54397686288047 55.97362227626559 H 0.0 **** 0.06
35631 C 104.72760164115192 117.3933322483621 66.05305981617505 C 0.0 **** -0.24
35632 H 105.49704921497056 116.66100764680428 65.80911264017993 H 0.0 **** 0.06
35633 H 104.55634353143597 118.04055519517351 65.19255224539623 H 0.0 **** 0.06
35634 H 105.05312846834045 117.99504125064892 66.90134848363681 H 0.0 **** 0.06
35635 H 103.80177633266186 116.87598323183616 66.30917844146441 H 0.0 **** 0.06
35636 C 3.3552641854255825 36.47559205543901 61.61181143687323 C 0.0 **** -0.24
35637 H 3.1502666699458217 37.44291841811179 61.152882389862974 H 0.0 **** 0.06
35638 H 3.0369676815212188 35.67930460859135 60.93821970376052 H 0.0 **** 0.06
35639 H 2.8096446287850654 36.39661757197134 62.55156800247365 H 0.0 **** 0.06
35640 H 4.42472629008337 36.384283404732344 61.80351356770826 H 0.0 **** 0.06
35641 C 38.73905421901043 2.4211024563782644 30.612203515110423 C 0.0 **** -0.24
35642 H 38.416362002321534 2.3957970791311993 31.652503682685165 H 0.0 **** 0.06
35643 H 37.873644022642736 2.5772143226910487 29.967093848014713 H 0.0 **** 0.06
35644 H 39.21773532685728 1.4756920304672292 30.356976848632712 H 0.0 **** 0.06
35645 H 39.44864943959698 3.2366541996028673 30.47250702390727 H 0.0 **** 0.06
35646 C 117.77342233824588 39.18216687630692 28.029097077392727 C 0.0 **** -0.24
35647 H 118.48652276337704 38.35745677697963 28.018363846072532 H 0.0 **** 0.06
35648 H 117.99916532387334 39.86668686021151 27.210969540042207 H 0.0 **** 0.06
35649 H 117.84585351600538 39.71226580366476 28.9779995491623 H 0.0 **** 0.06
35650 H 116.76379552839808 38.78973117221994 27.907080440086688 H 0.0 **** 0.06
35651 C 90.44573822561168 70.7811320429987 17.668115087344916 C 0.0 **** -0.24
35652 H 89.41991070150314 71.07422677040154 17.441917004994764 H 0.0 **** 0.06
35653 H 90.72832540460632 71.1741688972325 18.644734075219162 H 0.0 **** 0.06
35654 H 91.11369727172351 71.18198501110498 16.906318730832652 H 0.0 **** 0.06
35655 H 90.51751276032098 69.69350825438963 17.680033402476283 H 0.0 **** 0.06
35656 C 100.32412896670093 49.14230253200026 98.28234849560613 C 0.0 **** -0.24
35657 H 100.1677419305048 49.457689716101186 97.25083740058199 H 0.0 **** 0.06
35658 H 101.30396756192627 48.672624571615415 98.37444697006708 H 0.0 **** 0.06
35659 H 99.55047310493197 48.42838351379993 98.56504333854173 H 0.0 **** 0.06
35660 H 100.2743041701273 50.01101941857934 98.9382048404155 H 0.0 **** 0.06
35661 C 109.16199015028329 111.007113470506 116.31654586018362 C 0.0 **** -0.24
35662 H 108.31938782709133 110.57231698592281 116.85475539569305 H 0.0 **** 0.06
35663 H 108.79207205178392 111.58952657765568 115.47238075007132 H 0.0 **** 0.06
35664 H 109.80929449680869 110.21008083239647 115.9521695074738 H 0.0 **** 0.06
35665 H 109.72520259103695 111.65576835679818 116.98624028477622 H 0.0 **** 0.06
35666 C 104.0186195824731 89.00410613521055 63.9147064947623 C 0.0 **** -0.24
35667 H 103.84127485472692 88.6372690283965 62.90380565652566 H 0.0 **** 0.06
35668 H 104.85699567662874 89.70083343618745 63.90507642255551 H 0.0 **** 0.06
35669 H 104.25039654116819 88.16446982396056 64.5706535078674 H 0.0 **** 0.06
35670 H 103.12608609669113 89.51340071562097 64.27844149066993 H 0.0 **** 0.06
35671 C 30.58092270488686 1.4316732806456685 60.91734770477444 C 0.0 **** -0.24
35672 H 29.91663321542177 1.710985853705509 60.098761019714686 H 0.0 **** 0.06
35673 H 30.935019892067658 0.4111901007939167 60.76539215639124 H 0.0 **** 0.06
35674 H 30.040199126885284 1.491510723776912 61.861085771355334 H 0.0 **** 0.06
35675 H 31.43310366337886 2.1111057482455777 60.9417461401666 H 0.0 **** 0.06
35676 C 3.5764387580005206 19.366211417676936 7.806293470184698 C 0.0 **** -0.24
35677 H 3.579090131269254 18.392812006284885 7.3169810745255575 H 0.0 **** 0.06
35678 H 4.585763300537806 19.77909772743213 7.799289427784146 H 0.0 **** 0.06
35679 H 3.236367692158254 19.25476731347156 8.836020146436596 H 0.0 **** 0.06
35680 H 2.9058613986554462 20.03927105433351 7.27273295909265 H 0.0 **** 0.06
35681 C 36.846920156934374 4.526579210326929 68.29701014014611 C 0.0 **** -0.24
35682 H 37.63680220644122 5.238771427677648 68.05655896088999 H 0.0 **** 0.06
35683 H 36.01672559557609 4.657518981829583 67.60248877224012 H 0.0 **** 0.06
35684 H 36.49990197234533 4.7002460932502 69.31573990734915 H 0.0 **** 0.06
35685 H 37.23632818693633 3.5119234608675924 68.21294925421935 H 0.0 **** 0.06
35686 C 3.4339674639373357 76.25140164237843 115.34462166699848 C 0.0 **** -0.24
35687 H 3.756955088862611 77.22667228303544 114.98094422709688 H 0.0 **** 0.06
35688 H 4.308194251256225 75.64773047177994 115.58916162872086 H 0.0 **** 0.06
35689 H 2.851302786397099 75.75059700451692 114.57066508895353 H 0.0 **** 0.06
35690 H 2.8193186694228416 76.38100383734502 116.23474367720219 H 0.0 **** 0.06
35691 C 99.63566128907274 84.52940287686579 72.44193922069394 C 0.0 **** -0.24
35692 H 99.08177575153371 85.23171432591312 73.06423056968148 H 0.0 **** 0.06
35693 H 100.70062090402357 84.75185236042327 72.50237372127316 H 0.0 **** 0.06
35694 H 99.30248622120405 84.61971651559509 71.40759063241711 H 0.0 **** 0.06
35695 H 99.45549487554015 83.51341297769284 72.79341571279284 H 0.0 **** 0.06
35696 C 116.8203248867091 118.09812111778893 86.86986155269173 C 0.0 **** -0.24
35697 H 116.6018639929535 117.55202039240805 87.78829066835547 H 0.0 **** 0.06
35698 H 117.15631395501032 117.39896122685008 86.10283415416862 H 0.0 **** 0.06
35699 H 117.6025330301726 118.83191456323112 87.0613286918414 H 0.0 **** 0.06
35700 H 115.9197102311602 118.6075875924319 86.52746810786101 H 0.0 **** 0.06
35701 C 64.49275575640638 13.417137466880064 33.54208862747603 C 0.0 **** -0.24
35702 H 65.41611279783282 13.799305724239133 33.976990120111026 H 0.0 **** 0.06
35703 H 63.91885936542355 14.244184725790419 33.124631004410645 H 0.0 **** 0.06
35704 H 63.905174201714054 12.920748120329705 34.31544026339091 H 0.0 **** 0.06
35705 H 64.73084541128418 12.703862979633044 32.75370110223369 H 0.0 **** 0.06
35706 C 8.755945364448948 86.0512297902861 101.34908473597648 C 0.0 **** -0.24
35707 H 8.347292832767042 85.14549827735348 100.9004716603142 H 0.0 **** 0.06
35708 H 9.49900810663041 86.48392770401071 100.67968024639092 H 0.0 **** 0.06
35709 H 9.224509028211244 85.80431795937955 102.30214234741501 H 0.0 **** 0.06
35710 H 7.952680232490856 86.76903608336039 101.5146273903863 H 0.0 **** 0.06
35711 C 46.486631504825766 11.138281947013809 113.01363753342414 C 0.0 **** -0.24
35712 H 45.89129953792235 10.772148006978341 112.17727522603172 H 0.0 **** 0.06
35713 H 45.86504512237724 11.182578090344464 113.90919907555357 H 0.0 **** 0.06
35714 H 46.86219131127075 12.135315740145643 112.78285280281946 H 0.0 **** 0.06
35715 H 47.325174925789725 10.464573135952662 113.18615253476369 H 0.0 **** 0.06
35716 C 84.32032736721115 13.784480692204411 61.363201252939575 C 0.0 **** -0.24
35717 H 84.3925294720054 14.359971685975793 62.285836108416305 H 0.0 **** 0.06
35718 H 85.22635919862594 13.926600162503362 60.77476054726674 H 0.0 **** 0.06
35719 H 83.45682835030786 14.123312585383928 60.789901522272885 H 0.0 **** 0.06
35720 H 84.20472184855808 12.72717816507702 61.60301554804926 H 0.0 **** 0.06
35721 C 33.18196136843349 0.5203829913648974 110.15573372007171 C 0.0 **** -0.24
35722 H 33.668935892971774 -0.3381982925108673 109.69311710486224 H 0.0 **** 0.06
35723 H 32.13254548662623 0.2883783888769358 110.33756689618406 H 0.0 **** 0.06
35724 H 33.25522890605083 1.3802039440270732 109.49055489305931 H 0.0 **** 0.06
35725 H 33.67259995235199 0.749329771294299 111.10095496224224 H 0.0 **** 0.06
35726 C 32.00329989237298 53.94901871009955 13.533688004394065 C 0.0 **** -0.24
35727 H 31.970928435914857 54.98140538050117 13.184663630881033 H 0.0 **** 0.06
35728 H 32.76412524934693 53.4014571395266 12.975800620822326 H 0.0 **** 0.06
35729 H 31.031280610075953 53.4821595503588 13.377373835398203 H 0.0 **** 0.06
35730 H 32.248031575154016 53.9324272298463 14.595255335853665 H 0.0 **** 0.06
35731 C 36.55985159503037 77.73667572630006 59.24448330512897 C 0.0 **** -0.24
35732 H 37.004427635368884 78.58113511443818 59.76984369639721 H 0.0 **** 0.06
35733 H 37.26239739829899 76.90386382334492 59.23454298288258 H 0.0 **** 0.06
35734 H 36.326923895219075 78.02846029185721 58.22037462531218 H 0.0 **** 0.06
35735 H 35.6437655302774 77.43442907514392 59.75304645186484 H 0.0 **** 0.06
35736 C 103.80356076060568 107.09031001935537 46.1007192880177 C 0.0 **** -0.24
35737 H 104.72655968307532 107.65939943307964 46.208038033629634 H 0.0 **** 0.06
35738 H 103.88011638674351 106.16388462932119 46.67035986809066 H 0.0 **** 0.06
35739 H 103.64021832347433 106.85797442961015 45.048159277556834 H 0.0 **** 0.06
35740 H 102.96674092734142 107.68066649291706 46.47672200711881 H 0.0 **** 0.06
35741 C 2.610959115269168 49.52340277778635 10.432684710892204 C 0.0 **** -0.24
35742 H 3.580925086069641 49.06617074887501 10.2365698708916 H 0.0 **** 0.06
35743 H 2.177292429507986 49.871902729936174 9.494850412630768 H 0.0 **** 0.06
35744 H 2.7378694734322266 50.36778267489486 11.110003295527662 H 0.0 **** 0.06
35745 H 1.9478660197255238 48.78861026635312 10.888810369512527 H 0.0 **** 0.06
35746 C 50.11700479339508 68.61335437329433 35.642967718684446 C 0.0 **** -0.24
35747 H 49.63022093787996 68.22132952271528 36.53577514690295 H 0.0 **** 0.06
35748 H 50.16054284773875 69.70159273510427 35.701524677895264 H 0.0 **** 0.06
35749 H 49.54787422522489 68.31954566558187 34.76071038826268 H 0.0 **** 0.06
35750 H 51.127724156559864 68.2120692489512 35.57389018667453 H 0.0 **** 0.06
35751 C 71.54551333021715 40.044163912389045 0.6267701713813381 C 0.0 **** -0.24
35752 H 70.95166199128559 40.64323255845837 1.3172261678880943 H 0.0 **** 0.06
35753 H 70.96940685101694 39.858372750928275 -0.2803462287867262 H 0.0 **** 0.06
35754 H 71.80082806507366 39.09436596043911 1.097172544193299 H 0.0 **** 0.06
35755 H 72.45950365785615 40.582080070531205 0.3738194823678924 H 0.0 **** 0.06
35756 C 88.4657983523839 34.461230651668075 44.63026266859994 C 0.0 **** -0.24
35757 H 87.46483933170643 34.03383697949971 44.69505352343089 H 0.0 **** 0.06
35758 H 89.00064257075536 34.009666368001206 43.79507319552016 H 0.0 **** 0.06
35759 H 89.00498481588474 34.26369537836882 45.55731065083992 H 0.0 **** 0.06
35760 H 88.39131253838985 35.538126291054084 44.47602964132974 H 0.0 **** 0.06
35761 C 117.6031077080521 21.73781709848545 31.32956703153576 C 0.0 **** -0.24
35762 H 117.74075516311558 21.010931153221485 30.530089052331164 H 0.0 **** 0.06
35763 H 118.04381819288275 21.35344444799339 32.25014246949337 H 0.0 **** 0.06
35764 H 116.53873634580127 21.914249408718256 31.481439726062945 H 0.0 **** 0.06
35765 H 118.09226607646269 22.674012644410922 31.057081757850312 H 0.0 **** 0.06
35766 C 23.822460806087143 44.274819113459706 117.85873544165673 C 0.0 **** -0.24
35767 H 24.58599227945016 44.86697997051921 118.36199210664944 H 0.0 **** 0.06
35768 H 24.2052431941869 43.93170103821315 116.8961623748065 H 0.0 **** 0.06
35769 H 22.93480214658254 44.886041644533265 117.69986072124138 H 0.0 **** 0.06
35770 H 23.566012127207713 43.412961506344594 118.47566309412183 H 0.0 **** 0.06
35771 C 101.23628044343062 77.47515585805684 90.25033077063841 C 0.0 **** -0.24
35772 H 101.83917494383488 78.29579802878979 89.86088654365332 H 0.0 **** 0.06
35773 H 100.2026937720951 77.59854207783704 89.92799007316336 H 0.0 **** 0.06
35774 H 101.28072381073775 77.47732892581075 91.33928769245011 H 0.0 **** 0.06
35775 H 101.62493090778085 76.52849508874843 89.8733050370839 H 0.0 **** 0.06
35776 C 46.87604930748728 79.24936174639336 51.37157828789242 C 0.0 **** -0.24
35777 H 46.99630820013735 80.15623589183713 51.965312474700994 H 0.0 **** 0.06
35778 H 46.23948347589541 79.45975800897264 50.51196587446148 H 0.0 **** 0.06
35779 H 46.41601270527035 78.4734843030923 51.9840100633111 H 0.0 **** 0.06
35780 H 47.85188847646384 78.90909181606449 51.02572080933601 H 0.0 **** 0.06
35781 C 76.23149723903319 3.125198013223553 107.15109472719294 C 0.0 **** -0.24
35782 H 76.97648996382011 3.745129216724365 106.65279437009542 H 0.0 **** 0.06
35783 H 75.27190147227171 3.2330047643321222 106.64310168434784 H 0.0 **** 0.06
35784 H 76.13055358382277 3.44129857336992 108.18946121126913 H 0.0 **** 0.06
35785 H 76.54585116816958 2.0819121233159876 107.11789377908372 H 0.0 **** 0.06
35786 C 109.64928224771546 113.28991204654517 17.62241436628024 C 0.0 **** -0.24
35787 H 110.01690370384705 113.1936799833506 16.60099135775522 H 0.0 **** 0.06
35788 H 109.12614403795675 112.3768942307004 17.907379331818987 H 0.0 **** 0.06
35789 H 108.96342909015453 114.135850547953 17.683453025611996 H 0.0 **** 0.06
35790 H 110.48872438068395 113.45404012656452 18.29704829041414 H 0.0 **** 0.06
35791 C 62.538900113850644 90.67273026353692 36.58173462601178 C 0.0 **** -0.24
35792 H 61.893767869033724 89.79741437462613 36.650571791231755 H 0.0 **** 0.06
35793 H 62.41238972931092 91.2887748514994 37.47216392293757 H 0.0 **** 0.06
35794 H 62.27162869818386 91.25218996742728 35.69751540892685 H 0.0 **** 0.06
35795 H 63.578297196962836 90.35180486125981 36.50463219616671 H 0.0 **** 0.06
35796 C 118.02031833312243 92.19721834486046 30.630447684181064 C 0.0 **** -0.24
35797 H 118.75196573605317 92.84283476301653 30.14618064391854 H 0.0 **** 0.06
35798 H 118.4336202992676 91.81651513587235 31.564855905148193 H 0.0 **** 0.06
35799 H 117.78032805887811 91.36170546694711 29.972118676528055 H 0.0 **** 0.06
35800 H 117.11451492402557 92.76741424050999 30.838987869428422 H 0.0 **** 0.06
35801 C 109.81488518694138 48.15870821093577 28.31505643485582 C 0.0 **** -0.24
35802 H 109.32558330567824 49.08312088244253 28.620271040816846 H 0.0 **** 0.06
35803 H 110.36839966243204 48.32861247798303 27.391414508065083 H 0.0 **** 0.06
35804 H 109.0625254415699 47.38698034373451 28.152298819163178 H 0.0 **** 0.06
35805 H 110.50260863364582 47.83706196185594 29.09763123744986 H 0.0 **** 0.06
35806 C 117.87364571639465 48.14050196513996 76.05016100786244 C 0.0 **** -0.24
35807 H 118.07158351029196 47.109904200936874 75.75424708397006 H 0.0 **** 0.06
35808 H 117.73350449557964 48.1874384351428 77.13065145294334 H 0.0 **** 0.06
35809 H 116.97179124516076 48.494082377065276 75.55159960888369 H 0.0 **** 0.06
35810 H 118.71811185536319 48.76828124652932 75.76487821534207 H 0.0 **** 0.06
35811 C 71.52820433528674 109.46518403297475 27.726112027620616 C 0.0 **** -0.24
35812 H 71.9910747384703 110.28442553225972 28.278196805310415 H 0.0 **** 0.06
35813 H 70.46521363806187 109.67014150219057 27.597463805429157 H 0.0 **** 0.06
35814 H 71.65545974928014 108.53593091183996 28.281599052654542 H 0.0 **** 0.06
35815 H 72.00176558683066 109.37255574623393 26.749456616345014 H 0.0 **** 0.06
35816 C 88.4006380263263 30.26884255304273 1.9992543301465293 C 0.0 **** -0.24
35817 H 88.2458679231475 29.20480042469282 2.179036735694776 H 0.0 **** 0.06
35818 H 88.07666528199047 30.515662701571642 0.9877971387312705 H 0.0 **** 0.06
35819 H 89.45915121790722 30.504791703513774 2.10905394296379 H 0.0 **** 0.06
35820 H 87.82190352391365 30.84692050944517 2.7187376910837315 H 0.0 **** 0.06
35821 C 1.5578200595899716 94.8931637373901 114.8485677079041 C 0.0 **** -0.24
35822 H 2.022402663551503 95.42383495614797 115.67966288563989 H 0.0 **** 0.06
35823 H 1.0546578414379013 94.00051363859083 115.22257547693849 H 0.0 **** 0.06
35824 H 2.323840957605242 94.60362689708228 114.12922875503179 H 0.0 **** 0.06
35825 H 0.8306424747654972 95.54380677282163 114.36321473655292 H 0.0 **** 0.06
35826 C 4.167124954950639 81.07259628639508 51.957907451186145 C 0.0 **** -0.24
35827 H 4.755402799143827 81.74079436896102 51.328462722701545 H 0.0 **** 0.06
35828 H 4.806232290560164 80.64810079835536 52.7326277650553 H 0.0 **** 0.06
35829 H 3.7521479782532037 80.27089672031605 51.34851189585336 H 0.0 **** 0.06
35830 H 3.35615838368369 81.63319094678923 52.42244480739325 H 0.0 **** 0.06
35831 C 70.18107789104567 103.93377451816806 92.96227694748944 C 0.0 **** -0.24
35832 H 70.32479460881927 104.11327324581393 94.02672174140201 H 0.0 **** 0.06
35833 H 69.11764614786927 103.80344799866302 92.75605332387823 H 0.0 **** 0.06
35834 H 70.72160101883506 103.03412129010866 92.6692907590878 H 0.0 **** 0.06
35835 H 70.55933438311328 104.78542398658081 92.39538063392655 H 0.0 **** 0.06
35836 C 6.755371969994588 99.89256389597844 112.84061667574082 C 0.0 **** -0.24
35837 H 7.427934486948221 100.40491977433177 113.52914502616767 H 0.0 **** 0.06
35838 H 6.0793231500583005 100.61733799662684 112.3867338285828 H 0.0 **** 0.06
35839 H 6.178163115548667 99.14637500505893 113.38560121115916 H 0.0 **** 0.06
35840 H 7.338979375843486 99.40205142731881 112.06156594309681 H 0.0 **** 0.06
35841 C 73.73422310278909 10.674023501277958 14.711343415515842 C 0.0 **** -0.24
35842 H 74.50708483616626 9.911901530023698 14.613798828203329 H 0.0 **** 0.06
35843 H 74.05600764085654 11.428566471218915 15.429704600697931 H 0.0 **** 0.06
35844 H 72.80997955535264 10.2117946996907 15.058459453869574 H 0.0 **** 0.06
35845 H 73.56279455080539 11.143061506539397 13.74281479281268 H 0.0 **** 0.06
35846 C 55.51505303196504 42.25320392367834 33.1329258695925 C 0.0 **** -0.24
35847 H 54.680786254567124 42.80925224317005 33.56168383272001 H 0.0 **** 0.06
35848 H 55.17351857694905 41.26477462337024 32.82708798470196 H 0.0 **** 0.06
35849 H 56.304818925203364 42.15145271710284 33.87763969867473 H 0.0 **** 0.06
35850 H 55.900493476022234 42.789634339601804 32.26589576637184 H 0.0 **** 0.06
35851 C 72.95549355484962 45.51578970026196 50.42483977166188 C 0.0 **** -0.24
35852 H 72.91444135843327 45.27088689313419 51.4859379918787 H 0.0 **** 0.06
35853 H 72.48878264361377 44.71560860465209 49.84919548471771 H 0.0 **** 0.06
35854 H 73.99550618134361 45.62754780342294 50.117198700304144 H 0.0 **** 0.06
35855 H 72.4208709878501 46.44971686841748 50.24711253829159 H 0.0 **** 0.06
35856 C 67.8654788903774 86.27236090186071 25.02751567830179 C 0.0 **** -0.24
35857 H 67.04720437242452 85.74458711840089 25.51785311389846 H 0.0 **** 0.06
35858 H 68.80718361735381 86.01415383760127 25.513460667794504 H 0.0 **** 0.06
35859 H 67.70148004138605 87.34697371957247 25.10156125090471 H 0.0 **** 0.06
35860 H 67.90722110384479 85.9818435755297 23.977449281509728 H 0.0 **** 0.06
35861 C 11.889940233652737 75.70380073136565 6.676886639542946 C 0.0 **** -0.24
35862 H 11.920298814619684 76.05869422950789 7.707158013178823 H 0.0 **** 0.06
35863 H 11.7826502827632 74.61899572566395 6.669530696522173 H 0.0 **** 0.06
35864 H 12.81446026312409 75.98086462107946 6.169683049565194 H 0.0 **** 0.06
35865 H 11.043239038168451 76.15701780204205 6.161450421477262 H 0.0 **** 0.06
35866 C 57.766307788552695 113.84351513529248 105.4064761708363 C 0.0 **** -0.24
35867 H 58.061498971243196 114.88572394652533 105.28070993088289 H 0.0 **** 0.06
35868 H 56.73836816709462 113.7982573092373 105.76602587025727 H 0.0 **** 0.06
35869 H 58.42688916667595 113.36516586876218 106.13035835172482 H 0.0 **** 0.06
35870 H 57.84073200271442 113.32700617413872 104.44953591361914 H 0.0 **** 0.06
35871 C 111.19853087175943 37.22535094900624 83.19270484957676 C 0.0 **** -0.24
35872 H 111.83744210808328 37.03486964132216 82.33000474626704 H 0.0 **** 0.06
35873 H 110.34009768384391 37.823702824397486 82.88380559514204 H 0.0 **** 0.06
35874 H 111.76480650596972 37.76670813519124 83.95180466912365 H 0.0 **** 0.06
35875 H 110.85243824826549 36.278247949244786 83.60498370920939 H 0.0 **** 0.06
35876 C 48.265367063543636 11.614303554367297 95.74678668645223 C 0.0 **** -0.24
35877 H 48.42967619978782 12.022649507468628 94.74970132928726 H 0.0 **** 0.06
35878 H 48.873712627326825 12.160775312142732 96.46807128370307 H 0.0 **** 0.06
35879 H 48.54484661471167 10.561394235093417 95.75810947577261 H 0.0 **** 0.06
35880 H 47.21172973948319 11.713712452927354 96.00984837580162 H 0.0 **** 0.06
35881 C 21.074912585568732 100.78771025595603 49.019899205744196 C 0.0 **** -0.24
35882 H 20.575640434641343 99.85745805807326 49.28932312499583 H 0.0 **** 0.06
35883 H 20.545263376851043 101.2568584161028 48.19038857723092 H 0.0 **** 0.06
35884 H 22.102071306631558 100.57576266645219 48.72188184298858 H 0.0 **** 0.06
35885 H 21.076498269302064 101.46016732340715 49.87673233442487 H 0.0 **** 0.06
35886 C 109.48151202791166 58.207616269773645 30.685068993000385 C 0.0 **** -0.24
35887 H 109.22227941045904 59.18310742008743 31.096999345548582 H 0.0 **** 0.06
35888 H 108.7129467475898 57.89676600278249 29.97672465266095 H 0.0 **** 0.06
35889 H 109.54802886108757 57.47833392386176 31.493459983153286 H 0.0 **** 0.06
35890 H 110.44147466557439 58.27261267979693 30.17415779067676 H 0.0 **** 0.06
35891 C 36.72417438003825 49.62508168705102 18.31516422690595 C 0.0 **** -0.24
35892 H 37.29775211867869 48.73207457025251 18.069137940005987 H 0.0 **** 0.06
35893 H 36.51934864059569 49.641639581845425 19.38556292596678 H 0.0 **** 0.06
35894 H 35.78265982526493 49.614692918870674 17.765594783996846 H 0.0 **** 0.06
35895 H 37.2957214081617 50.511292829864544 18.0407213502977 H 0.0 **** 0.06
35896 C 32.14170837630701 74.5013898216394 96.35826283001057 C 0.0 **** -0.24
35897 H 31.194766592093288 74.48888801082543 96.8991964367986 H 0.0 **** 0.06
35898 H 32.91420750373817 74.94110136020385 96.99009988006111 H 0.0 **** 0.06
35899 H 32.03350038060603 75.09361183096865 95.4494139595368 H 0.0 **** 0.06
35900 H 32.42324998699149 73.48140622468827 96.09707343782179 H 0.0 **** 0.06
35901 C 0.744211751490738 60.79443612743083 93.21577338431166 C 0.0 **** -0.24
35902 H 0.6183079388642483 59.893372141457235 92.61561753449553 H 0.0 **** 0.06
35903 H 0.8333182833726198 61.659059350860815 92.55806308619321 H 0.0 **** 0.06
35904 H 1.6452335260083544 60.70353773362072 93.82271110250781 H 0.0 **** 0.06
35905 H -0.12204686340454884 60.91971171486961 93.86592429520374 H 0.0 **** 0.06
35906 C 59.61491404081554 30.061398240643882 7.983374959173403 C 0.0 **** -0.24
35907 H 59.701761583168256 31.133295366793412 8.161664597335374 H 0.0 **** 0.06
35908 H 58.85631523165028 29.880100857051744 7.221331464769065 H 0.0 **** 0.06
35909 H 59.32729826364852 29.560774923791527 8.908186625110304 H 0.0 **** 0.06
35910 H 60.57333150368219 29.671258751429363 7.642049265802399 H 0.0 **** 0.06
35911 C 34.30078198466049 14.052382836741117 13.861774849746102 C 0.0 **** -0.24
35912 H 34.219823206013245 15.138350880571238 13.91979447381361 H 0.0 **** 0.06
35913 H 35.287696351999784 13.781300851297203 13.488275645266658 H 0.0 **** 0.06
35914 H 33.53692348417502 13.667390031473417 13.185724632741973 H 0.0 **** 0.06
35915 H 34.15651911109626 13.624788960538126 14.853455631301031 H 0.0 **** 0.06
35916 C 74.19121723256052 71.79593191367718 68.23713469341055 C 0.0 **** -0.24
35917 H 74.24957440327034 70.80038635378713 68.6752014853889 H 0.0 **** 0.06
35918 H 74.34581677437293 71.72898825046317 67.1600466380778 H 0.0 **** 0.06
35919 H 74.95952591229235 72.43185374386348 68.67630242633686 H 0.0 **** 0.06
35920 H 73.20865817052587 72.22427014898233 68.43742504651425 H 0.0 **** 0.06
35921 C 68.54465904231355 34.84281746072107 62.13720726707539 C 0.0 **** -0.24
35922 H 69.50154274839247 34.696769344802156 61.63595218614471 H 0.0 **** 0.06
35923 H 67.7393099582012 34.49165943033834 61.492554659328086 H 0.0 **** 0.06
35924 H 68.40460994304465 35.90322303240233 62.349578315408614 H 0.0 **** 0.06
35925 H 68.53395638720932 34.28164192816979 63.071283587383 H 0.0 **** 0.06
35926 C 9.70601636678245 118.64707013524904 108.18836714239174 C 0.0 **** -0.24
35927 H 9.264025908822106 119.64276536038429 108.20224226707163 H 0.0 **** 0.06
35928 H 10.618356793394327 118.66328508529264 107.59122711542292 H 0.0 **** 0.06
35929 H 8.998444430282348 117.94160757877557 107.75187578235435 H 0.0 **** 0.06
35930 H 9.943168565685284 118.34085749550519 109.20640873735377 H 0.0 **** 0.06
35931 C 84.46498404408487 55.931981625657755 87.84312662113757 C 0.0 **** -0.24
35932 H 84.20762666833426 54.98370678388517 87.3712610307033 H 0.0 **** 0.06
35933 H 84.97660212412887 56.56991730032058 87.1227266479344 H 0.0 **** 0.06
35934 H 85.120253444842 55.74721993325787 88.6952389039362 H 0.0 **** 0.06
35935 H 83.5557742045485 56.426041220346406 88.18607520134094 H 0.0 **** 0.06
35936 C 12.915862495368401 2.79008608485357 110.68865409561596 C 0.0 **** -0.24
35937 H 12.502914028435669 2.5263166428082116 109.71488030913903 H 0.0 **** 0.06
35938 H 13.565028885718732 1.9873251715590499 111.03779020455985 H 0.0 **** 0.06
35939 H 12.102934603777783 2.9365352256067467 111.39957743859063 H 0.0 **** 0.06
35940 H 13.491999905564569 3.7114932196521835 110.60066127134527 H 0.0 **** 0.06
35941 C 101.27089204595995 0.6759899240453109 82.34413025855616 C 0.0 **** -0.24
35942 H 102.15825358136922 1.3032889174884446 82.4159738012919 H 0.0 **** 0.06
35943 H 100.38662478742714 1.2698962763784465 82.57609105076102 H 0.0 **** 0.06
35944 H 101.35090404581985 -0.14864459108272854 83.05216634890473 H 0.0 **** 0.06
35945 H 101.18758862441896 0.28011931768337206 81.33160362955283 H 0.0 **** 0.06
35946 C 93.17574809688674 25.93096048641121 117.55879086457485 C 0.0 **** -0.24
35947 H 92.54203547693055 26.811343034837535 117.45126403166259 H 0.0 **** 0.06
35948 H 92.71090999035027 25.23319671485808 118.25532111013426 H 0.0 **** 0.06
35949 H 94.15111546533518 26.231896494022294 117.94112467675353 H 0.0 **** 0.06
35950 H 93.29684129148183 25.45102118263219 116.58870286895666 H 0.0 **** 0.06
35951 C 117.87448788546934 77.96916905235943 71.19811699935406 C 0.0 **** -0.24
35952 H 117.37830231249735 77.3736200410764 70.43203843802803 H 0.0 **** 0.06
35953 H 117.16853022932119 78.18923580342474 72.00029382765416 H 0.0 **** 0.06
35954 H 118.22943848937987 78.90199611896776 70.7601833824848 H 0.0 **** 0.06
35955 H 118.71941123606817 77.4114494190307 71.60159866112946 H 0.0 **** 0.06
35956 C 59.85758083669475 30.409033952987272 58.21740658999886 C 0.0 **** -0.24
35957 H 60.09452094097128 29.4118370335151 58.586641950843585 H 0.0 **** 0.06
35958 H 59.344460996887506 30.972738527791478 58.997337600246 H 0.0 **** 0.06
35959 H 59.21168260581106 30.32906262346188 57.34242530422287 H 0.0 **** 0.06
35960 H 60.77839702566763 30.922939703001134 57.942760421195715 H 0.0 **** 0.06
35961 C 121.21324588784532 89.5596021275029 70.52304915739927 C 0.0 **** -0.24
35962 H 121.6647342931509 89.21824025255214 71.45477735850676 H 0.0 **** 0.06
35963 H 120.17488144821655 89.83853257449539 70.70400291188261 H 0.0 **** 0.06
35964 H 121.25290865985494 88.75885905296627 69.78613098373307 H 0.0 **** 0.06
35965 H 121.76158385267081 90.4252445952651 70.14986315959567 H 0.0 **** 0.06
35966 C 23.448381685339314 121.8381663734736 44.08354931223104 C 0.0 **** -0.24
35967 H 24.44033748687093 121.42371882983753 43.90173322565295 H 0.0 **** 0.06
35968 H 23.518243839944034 122.63011892579301 44.82926076197769 H 0.0 **** 0.06
35969 H 22.788175442509697 121.05204196230318 44.44809859764541 H 0.0 **** 0.06
35970 H 23.049853034860917 122.24748784676798 43.15505591118793 H 0.0 **** 0.06
35971 C 26.245740783897503 122.62608667467904 96.10981281373662 C 0.0 **** -0.24
35972 H 25.345084819021707 122.09635400074144 95.80014648795469 H 0.0 **** 0.06
35973 H 26.820704788711282 122.91228435064598 95.22901009808527 H 0.0 **** 0.06
35974 H 26.849965454556695 121.97661651447693 96.74331750546017 H 0.0 **** 0.06
35975 H 25.96679287659103 123.51948760899754 96.66806986768935 H 0.0 **** 0.06
35976 C 56.2936860581724 116.81856843178996 53.79355845807812 C 0.0 **** -0.24
35977 H 55.735196981521256 116.4042462264876 52.95457147636103 H 0.0 **** 0.06
35978 H 57.28712013431641 116.3700969317951 53.82644060765019 H 0.0 **** 0.06
35979 H 55.76604748649197 116.602470840509 54.72322537101714 H 0.0 **** 0.06
35980 H 56.38557492561824 117.89795557521418 53.67032293791657 H 0.0 **** 0.06
35981 C 50.98879055489601 64.81362188824428 38.82843335269874 C 0.0 **** -0.24
35982 H 50.127553846103744 65.27974767275066 39.30569548195328 H 0.0 **** 0.06
35983 H 50.667936535866986 63.9199161738714 38.29257892996867 H 0.0 **** 0.06
35984 H 51.720298646973795 64.53899153209076 39.5881163012464 H 0.0 **** 0.06
35985 H 51.439373190639685 65.5158321742644 38.127342697626574 H 0.0 **** 0.06
35986 C 90.57326142303796 82.52902261054481 81.82383855243029 C 0.0 **** -0.24
35987 H 90.57951575109621 82.23518540737143 82.87262242516798 H 0.0 **** 0.06
35988 H 91.32921196048358 81.95923282415532 81.28268186366788 H 0.0 **** 0.06
35989 H 90.79326943069691 83.59331663984511 81.74288300091797 H 0.0 **** 0.06
35990 H 89.5912796476772 82.32733610386555 81.39621434856062 H 0.0 **** 0.06
35991 C 120.08964172651429 9.890483914676338 60.52483200101579 C 0.0 **** -0.24
35992 H 121.10720279959659 9.529662809849185 60.66840295225757 H 0.0 **** 0.06
35993 H 119.96103191114275 10.215360476618429 59.49232928116498 H 0.0 **** 0.06
35994 H 119.90291817434107 10.729172449526004 61.19530941979418 H 0.0 **** 0.06
35995 H 119.38597056519458 9.086818170725678 60.74354514742655 H 0.0 **** 0.06
35996 C 91.96109312493084 28.621564832950526 114.5123416591849 C 0.0 **** -0.24
35997 H 91.25218829628483 27.85082408236798 114.81510852813537 H 0.0 **** 0.06
35998 H 92.94690333010374 28.386227375452393 114.91494657226963 H 0.0 **** 0.06
35999 H 91.6320995410872 29.5871253838084 114.8947604092219 H 0.0 **** 0.06
36000 H 92.01143604056463 28.659657448513286 113.42427977705626 H 0.0 **** 0.06
36001 C 67.91311955576276 110.65913193803937 99.84941348699576 C 0.0 **** -0.24
36002 H 68.21418900210395 111.60459461898381 99.39585339550808 H 0.0 **** 0.06
36003 H 68.24625122766531 110.63203458683296 100.88679149842181 H 0.0 **** 0.06
36004 H 68.36426792956865 109.83383582073941 99.30020360792423 H 0.0 **** 0.06
36005 H 66.8273041890358 110.57027468271977 99.81306086969587 H 0.0 **** 0.06
36006 C 79.18863208061634 120.68568138985293 28.883954999198153 C 0.0 **** -0.24
36007 H 79.79915448152269 120.05293450320428 28.24024631571885 H 0.0 **** 0.06
36008 H 78.82819066110184 121.54225189283557 28.314477101134628 H 0.0 **** 0.06
36009 H 79.78937967952575 121.0348587986186 29.724363021954275 H 0.0 **** 0.06
36010 H 78.33999542513465 120.1130754545695 29.256932675876556 H 0.0 **** 0.06
36011 C 44.12224706164329 34.30224623925409 17.252465836969147 C 0.0 **** -0.24
36012 H 44.752473010915566 33.44069297735598 17.47596848079965 H 0.0 **** 0.06
36013 H 44.53191708611445 34.838237070691434 16.39682491893063 H 0.0 **** 0.06
36014 H 44.09280771633982 34.964151609947294 18.117230349420296 H 0.0 **** 0.06
36015 H 43.112935348648904 33.962429422482785 17.019050846743905 H 0.0 **** 0.06
36016 C 75.05036148746535 70.73521947477855 29.15544113084585 C 0.0 **** -0.24
36017 H 74.07913118482747 70.55489693064544 28.695603592933033 H 0.0 **** 0.06
36018 H 75.80964140826154 70.14547570454201 28.64098854363823 H 0.0 **** 0.06
36019 H 75.01428629768478 70.44527343256095 30.205529698457703 H 0.0 **** 0.06
36020 H 75.29769326881737 71.79394729657562 29.078275630169067 H 0.0 **** 0.06
36021 C 5.224987769396421 11.503913380800554 75.90787590121568 C 0.0 **** -0.24
36022 H 4.487587039943321 10.770332109585297 76.23272782813717 H 0.0 **** 0.06
36023 H 5.160210197438062 12.389734089672686 76.5403375288476 H 0.0 **** 0.06
36024 H 5.0297832346793285 11.780569893632332 74.87176707674507 H 0.0 **** 0.06
36025 H 6.223471288312368 11.073499316298808 75.98597543418907 H 0.0 **** 0.06
36026 C 97.95054770210575 78.73780861165244 68.95010684075018 C 0.0 **** -0.24
36027 H 97.48943903587826 79.49208544964424 69.58729076115466 H 0.0 **** 0.06
36028 H 97.7765787726191 77.74867717362224 69.3740100752565 H 0.0 **** 0.06
36029 H 99.0226396700536 78.92264537345486 68.88545166367777 H 0.0 **** 0.06
36030 H 97.5122579797906 78.78784658441396 67.95306397168096 H 0.0 **** 0.06
36031 C 47.487700896960405 47.88799839897058 47.64039678876759 C 0.0 **** -0.24
36032 H 47.65069482035952 48.38772688088352 48.59566407857881 H 0.0 **** 0.06
36033 H 46.57766346111194 47.2904808439078 47.69480054600359 H 0.0 **** 0.06
36034 H 48.33588614267876 47.23915040653441 47.42098569874983 H 0.0 **** 0.06
36035 H 47.387267937912696 48.63421359927992 46.85302130218423 H 0.0 **** 0.06
36036 C 1.1404765984428593 38.9939175496939 49.00560984250442 C 0.0 **** -0.24
36037 H 0.7043622770686682 39.88595994058355 48.55631953137505 H 0.0 **** 0.06
36038 H 0.6098993726075435 38.75370343379622 49.92741305440749 H 0.0 **** 0.06
36039 H 2.1923827316737743 39.17631359915485 49.22759261196991 H 0.0 **** 0.06
36040 H 1.055561141315934 38.15867449233238 48.30914618256074 H 0.0 **** 0.06
36041 C 50.43278230048486 98.32500582618417 118.8652978754015 C 0.0 **** -0.24
36042 H 50.30561388232752 97.68950367988498 117.98853486264707 H 0.0 **** 0.06
36043 H 50.9916356792458 97.78296968443041 119.62760149108173 H 0.0 **** 0.06
36044 H 49.454342099766365 98.60069331131962 119.25856916623803 H 0.0 **** 0.06
36045 H 50.978751984993636 99.2252440337086 118.58429900112084 H 0.0 **** 0.06
36046 C 54.0576991949717 90.81115850226348 99.28652723081365 C 0.0 **** -0.24
36047 H 53.14124944176542 90.74885101010844 99.8729654043988 H 0.0 **** 0.06
36048 H 54.81505119020388 91.3547332592712 99.85152243220486 H 0.0 **** 0.06
36049 H 53.85538970725573 91.3345629691556 98.35174929081606 H 0.0 **** 0.06
36050 H 54.41774307798352 89.80565250549498 99.06920440459663 H 0.0 **** 0.06
36051 C 21.22882473198962 14.68453189030285 119.14196467483922 C 0.0 **** -0.24
36052 H 20.939620352409918 13.816596567458319 119.73396230396182 H 0.0 **** 0.06
36053 H 21.09000075707209 15.59032781553086 119.73321152872342 H 0.0 **** 0.06
36054 H 20.609125848686745 14.736775743667394 118.24686077282124 H 0.0 **** 0.06
36055 H 22.276352908337003 14.595811651120101 118.85403487896369 H 0.0 **** 0.06
36056 C 23.283289524618795 61.83070125656448 54.83843122762056 C 0.0 **** -0.24
36057 H 22.8187827236643 61.06621673742333 54.215794922421594 H 0.0 **** 0.06
36058 H 24.180261270339884 62.20589332799341 54.34430492477151 H 0.0 **** 0.06
36059 H 23.553318714799502 61.39905711627134 55.8026343946124 H 0.0 **** 0.06
36060 H 22.58223816781458 62.65027662112132 54.99073437859869 H 0.0 **** 0.06
36061 C 102.56754103251816 30.723100484133568 86.36986246241449 C 0.0 **** -0.24
36062 H 102.99425944839766 29.7634008866181 86.08221844651013 H 0.0 **** 0.06
36063 H 101.8995593457023 31.074347599315658 85.5833841980153 H 0.0 **** 0.06
36064 H 103.36891025918166 31.447414924041738 86.51670625583208 H 0.0 **** 0.06
36065 H 102.0081921609254 30.608553079425903 87.29878382868944 H 0.0 **** 0.06
36066 C 94.28479827792972 103.17238153170138 34.852753055925575 C 0.0 **** -0.24
36067 H 94.44412125045892 103.52771756227332 33.83478222415806 H 0.0 **** 0.06
36068 H 93.75129947231125 102.2218200009585 34.82607021129232 H 0.0 **** 0.06
36069 H 93.69628477766582 103.90444525047076 35.40553211272143 H 0.0 **** 0.06
36070 H 95.24883800795675 103.0352135445294 35.344367304957004 H 0.0 **** 0.06
36071 C 108.6918050992181 103.26967065950882 121.81490246500573 C 0.0 **** -0.24
36072 H 107.88534922508205 102.75417997898299 122.33606500084079 H 0.0 **** 0.06
36073 H 109.60327173129355 102.67615124680023 121.87791320619117 H 0.0 **** 0.06
36074 H 108.85851895780957 104.24347712941804 122.2774559061774 H 0.0 **** 0.06
36075 H 108.41841675652213 103.40630831050336 120.76859510132259 H 0.0 **** 0.06
36076 C 45.365119351779754 17.657859649976473 2.23879026269735 C 0.0 **** -0.24
36077 H 46.13222146570172 17.950346884720403 1.5221504203409069 H 0.0 **** 0.06
36078 H 44.68105785452349 16.95022855668654 1.7698070411342854 H 0.0 **** 0.06
36079 H 44.812723040757305 18.540902093316674 2.5594091418475813 H 0.0 **** 0.06
36080 H 45.836637369668324 17.189758487859308 3.1032619085627005 H 0.0 **** 0.06
36081 C 74.94898045836447 105.73027263427497 23.353657063905864 C 0.0 **** -0.24
36082 H 75.30091493428347 105.26727835563716 22.432045148177302 H 0.0 **** 0.06
36083 H 74.93619013603961 106.8141394318838 23.23331848024401 H 0.0 **** 0.06
36084 H 75.617769569973 105.46400073072252 24.172685498050804 H 0.0 **** 0.06
36085 H 73.94230974904542 105.37719986678306 23.576311069450334 H 0.0 **** 0.06
36086 C 119.57346571386785 54.505880891052804 3.3646754465123703 C 0.0 **** -0.24
36087 H 120.41685747508487 54.14926050315133 3.9565195156421957 H 0.0 **** 0.06
36088 H 119.78604823753332 55.5116505788634 3.0011686662563637 H 0.0 **** 0.06
36089 H 118.6768332282905 54.52545350548464 3.9851706495365793 H 0.0 **** 0.06
36090 H 119.41521068760295 53.83877756465598 2.5187064778596575 H 0.0 **** 0.06
36091 C 61.9236997437952 23.55902322817269 15.556043604341994 C 0.0 **** -0.24
36092 H 61.89648060772271 24.558329534622658 15.122914189755818 H 0.0 **** 0.06
36093 H 62.749171713270556 22.996203250722942 15.119651741605026 H 0.0 **** 0.06
36094 H 60.984265659995 23.046921279647393 15.347258210057873 H 0.0 **** 0.06
36095 H 62.0643186494664 23.63396406376728 16.63482828297674 H 0.0 **** 0.06
36096 C 32.89869664127309 113.56912595986347 97.8351832990486 C 0.0 **** -0.24
36097 H 33.86606755069187 113.75558980100558 98.30201079500586 H 0.0 **** 0.06
36098 H 32.70008119262707 114.33990633916255 97.09049300085837 H 0.0 **** 0.06
36099 H 32.11882789917834 113.58863965036448 98.59639751705407 H 0.0 **** 0.06
36100 H 32.911523796279496 112.59138604163212 97.35328054909462 H 0.0 **** 0.06
36101 C 109.01958205013383 14.312716508925064 115.74050439492311 C 0.0 **** -0.24
36102 H 108.21654334786979 14.27161359092915 116.47634032572566 H 0.0 **** 0.06
36103 H 109.85124122600337 14.890142869625805 116.14397673504067 H 0.0 **** 0.06
36104 H 108.6538938386503 14.788975603878214 114.83031892762642 H 0.0 **** 0.06
36105 H 109.35468118229738 13.301374544207818 115.51214703515365 H 0.0 **** 0.06
36106 C 80.72678149544521 28.977109142248878 112.06673277242149 C 0.0 **** -0.24
36107 H 81.10051479114705 29.652063613771872 111.2967665307072 H 0.0 **** 0.06
36108 H 80.69707845638794 27.960726759023885 111.67369749946683 H 0.0 **** 0.06
36109 H 79.72300249052424 29.282054504008556 112.36216999169339 H 0.0 **** 0.06
36110 H 81.38745510459049 29.012074571468986 112.93293940239617 H 0.0 **** 0.06
36111 C 38.11000726494436 0.8838028254076562 64.02055393945588 C 0.0 **** -0.24
36112 H 37.5529352259429 0.08056964929332366 63.53814815148368 H 0.0 **** 0.06
36113 H 37.44312893333033 1.724836102395244 64.21069981356175 H 0.0 **** 0.06
36114 H 38.92291514457527 1.2034158415463025 63.36839334693397 H 0.0 **** 0.06
36115 H 38.52116624997623 0.5241962964084053 64.96455533809794 H 0.0 **** 0.06
36116 C 60.23011611261118 70.07014728170219 106.10761073485213 C 0.0 **** -0.24
36117 H 60.70397347127231 69.11415072585902 105.88538583940039 H 0.0 **** 0.06
36118 H 59.7702109188244 70.46768518910773 105.20211251260736 H 0.0 **** 0.06
36119 H 60.980639843517714 70.77158431413528 106.47256466295087 H 0.0 **** 0.06
36120 H 59.465042378127514 69.9267862326144 106.87108434760015 H 0.0 **** 0.06
36121 C 20.179825152673985 5.594124111642742 1.5942882626194965 C 0.0 **** -0.24
36122 H 19.720371151212078 6.560860513535658 1.3889547186955493 H 0.0 **** 0.06
36123 H 20.368753063021103 5.501517896052746 2.6639505840243753 H 0.0 **** 0.06
36124 H 21.122101895373476 5.516646887556647 1.0505640419235913 H 0.0 **** 0.06
36125 H 19.508716710891164 4.798507013093882 1.272452966211592 H 0.0 **** 0.06
36126 C 37.790555061145625 10.403484091829913 61.601475154078294 C 0.0 **** -0.24
36127 H 37.22322809920621 9.474224032297151 61.64259609706814 H 0.0 **** 0.06
36128 H 38.83572294602493 10.182596237164834 61.386076112214404 H 0.0 **** 0.06
36129 H 37.717117183706875 10.91626520093639 62.56085754790545 H 0.0 **** 0.06
36130 H 37.384325733677855 11.042139150507655 60.816444174806826 H 0.0 **** 0.06
36131 C 36.26820253887138 2.943472035304266 59.805390980316055 C 0.0 **** -0.24
36132 H 35.824206891341134 3.924100230842143 59.63956506625244 H 0.0 **** 0.06
36133 H 35.5561488488886 2.16830422871541 59.5201847266974 H 0.0 **** 0.06
36134 H 36.522910192355425 2.833354893318072 60.85946609811085 H 0.0 **** 0.06
36135 H 37.17136218562416 2.846826944184448 59.20232585728092 H 0.0 **** 0.06
36136 C 40.729169330122005 110.50894193315116 58.253845371657754 C 0.0 **** -0.24
36137 H 41.60684100927681 109.90826702378013 58.49360407076332 H 0.0 **** 0.06
36138 H 40.365745780086854 110.24036433054317 57.261358803937576 H 0.0 **** 0.06
36139 H 40.99799061646943 111.56532454911384 58.269434896481464 H 0.0 **** 0.06
36140 H 39.948250510233315 110.321395201493 58.99053467385581 H 0.0 **** 0.06
36141 C 42.341553450555864 72.37813769657794 65.92640898434419 C 0.0 **** -0.24
36142 H 42.650571325554466 71.3990483483484 66.29217546529173 H 0.0 **** 0.06
36143 H 42.31913285891588 73.08493883937126 66.75645997299898 H 0.0 **** 0.06
36144 H 41.347643389869376 72.30349451100506 65.48615988703523 H 0.0 **** 0.06
36145 H 43.047970080868396 72.72444127140773 65.17279075196507 H 0.0 **** 0.06
36146 C 45.50086933159156 91.62567636124268 28.302531164813544 C 0.0 **** -0.24
36147 H 45.625117248432076 92.56574648171687 27.764812126198166 H 0.0 **** 0.06
36148 H 44.54975908483323 91.17154240016859 28.02285487563543 H 0.0 **** 0.06
36149 H 45.51123072244059 91.81692471205653 29.37556417359596 H 0.0 **** 0.06
36150 H 46.316061029768406 90.94966146163682 28.04593529701495 H 0.0 **** 0.06
36151 C 32.13892419950159 84.55333876064714 72.5774311096142 C 0.0 **** -0.24
36152 H 32.60399682632209 83.58119374578013 72.74078853285536 H 0.0 **** 0.06
36153 H 31.343774655625282 84.45477965154822 71.83722942582673 H 0.0 **** 0.06
36154 H 32.88764283343927 85.25823018823843 72.21458311428265 H 0.0 **** 0.06
36155 H 31.71978487641887 84.91854506303054 73.51480280341104 H 0.0 **** 0.06
36156 C 92.99287227200367 115.0902958439372 51.68051316345672 C 0.0 **** -0.24
36157 H 93.40519055218166 115.2595397866179 52.6749648837366 H 0.0 **** 0.06
36158 H 93.27739319634088 114.09665488736746 51.33425657388896 H 0.0 **** 0.06
36159 H 93.38459411400126 115.84098586380367 50.99303101402685 H 0.0 **** 0.06
36160 H 91.90629566117966 115.16503311643584 51.71982881034143 H 0.0 **** 0.06
36161 C 1.1371921086566346 15.518960826327913 84.36961425395504 C 0.0 **** -0.24
36162 H 0.933048338821866 15.158227002163642 83.36136598430454 H 0.0 **** 0.06
36163 H 1.5650623014096805 14.711840397649183 84.96486116211105 H 0.0 **** 0.06
36164 H 0.2083556724305211 15.85699698830615 84.82956162308079 H 0.0 **** 0.06
36165 H 1.8415582159427384 16.349099528334364 84.32325464890636 H 0.0 **** 0.06
36166 C 87.39988271331401 86.75679571840834 18.74703934499007 C 0.0 **** -0.24
36167 H 87.62785218804547 85.7276734761644 19.025449985127565 H 0.0 **** 0.06
36168 H 88.06371610047279 87.43371481816047 19.284758502092046 H 0.0 **** 0.06
36169 H 86.36469646348442 86.98033925246756 19.004491927809397 H 0.0 **** 0.06
36170 H 87.54220239191048 86.88218092057315 17.673840962296637 H 0.0 **** 0.06
36171 C 121.1543138602264 114.83630435189107 85.92768064473941 C 0.0 **** -0.24
36172 H 120.69134565294118 115.61915679310866 86.5272384347411 H 0.0 **** 0.06
36173 H 120.37757186416158 114.24904622645603 85.43588088453075 H 0.0 **** 0.06
36174 H 121.74702899017845 114.18706402788317 86.57196311043631 H 0.0 **** 0.06
36175 H 121.79960178455799 115.28887274866283 85.17425280300714 H 0.0 **** 0.06
36176 C 69.85211289382366 30.738377409872783 61.76534893004999 C 0.0 **** -0.24
36177 H 70.34776726235827 30.30635732008932 60.89572743574866 H 0.0 **** 0.06
36178 H 69.1709498323909 30.005829446490218 62.197374909705 H 0.0 **** 0.06
36179 H 69.2919544954141 31.622695234984192 61.46123268253174 H 0.0 **** 0.06
36180 H 70.6012542566126 31.01985102688517 62.506402257396395 H 0.0 **** 0.06
36181 C 29.16179576261095 97.46161068042096 108.93192119686557 C 0.0 **** -0.24
36182 H 29.251290684340802 96.6205592756653 108.24426479227512 H 0.0 **** 0.06
36183 H 28.180074648495292 97.44034094824462 109.40470800129009 H 0.0 **** 0.06
36184 H 29.280136849745872 98.39455001199977 108.38106032101595 H 0.0 **** 0.06
36185 H 29.936084714341746 97.39013169045484 109.69589208142591 H 0.0 **** 0.06
36186 C 49.51178044411881 51.956001450834066 54.84701091980037 C 0.0 **** -0.24
36187 H 50.3702102221842 52.455867001482204 54.39746345990176 H 0.0 **** 0.06
36188 H 49.47808071411558 50.9188723434996 54.51132245179059 H 0.0 **** 0.06
36189 H 48.59642813349373 52.464991446739475 54.546675428776354 H 0.0 **** 0.06
36190 H 49.60397239589247 51.98357589382911 55.9328002311166 H 0.0 **** 0.06
36191 C 107.83193844591926 114.03201320704187 100.77551494957652 C 0.0 **** -0.24
36192 H 106.8378295676603 113.6603545997121 101.02617130516751 H 0.0 **** 0.06
36193 H 108.40739914226353 113.23756582566912 100.29950600224879 H 0.0 **** 0.06
36194 H 108.33916678901954 114.35487844507284 101.6844277890134 H 0.0 **** 0.06
36195 H 107.74174278854298 114.87510129101273 100.09041614955396 H 0.0 **** 0.06
36196 C 39.26876518757522 118.63715633795374 107.9546277294915 C 0.0 **** -0.24
36197 H 38.54989672152703 119.00760040620179 107.22456650738104 H 0.0 **** 0.06
36198 H 39.71039336871353 117.70993666494985 107.58982868522622 H 0.0 **** 0.06
36199 H 38.76276377419498 118.4519490372632 108.90168470108424 H 0.0 **** 0.06
36200 H 40.05293796532534 119.38050693543943 108.10062469000289 H 0.0 **** 0.06
36201 C 81.60543299302913 47.803694729136566 93.67218945174474 C 0.0 **** -0.24
36202 H 81.24860830365998 48.59361765013341 93.01125295623001 H 0.0 **** 0.06
36203 H 82.12469067231123 48.24735070206157 94.52101093213068 H 0.0 **** 0.06
36204 H 82.28960915871764 47.15553304367313 93.12505555307882 H 0.0 **** 0.06
36205 H 80.75745444484525 47.21878612125573 94.02863361135559 H 0.0 **** 0.06
36206 C 50.1651052541911 80.94953403034964 18.6067587746266 C 0.0 **** -0.24
36207 H 49.40875279811197 80.42098358953166 18.025482944772364 H 0.0 **** 0.06
36208 H 50.760045393060004 80.22911282252474 19.16808010884023 H 0.0 **** 0.06
36209 H 49.675596053873946 81.63604619418388 19.298516677135126 H 0.0 **** 0.06
36210 H 50.81249514814296 81.51183375657442 17.933729443049913 H 0.0 **** 0.06
36211 C 50.25596438136017 115.33645492208544 78.84908190514165 C 0.0 **** -0.24
36212 H 50.325338434308556 114.29901167908616 78.52167558535558 H 0.0 **** 0.06
36213 H 51.2024705452001 115.64032941905967 79.29712604202771 H 0.0 **** 0.06
36214 H 49.45774543428215 115.43197685267734 79.58586291690398 H 0.0 **** 0.06
36215 H 50.03785208529508 115.97412469159406 77.99247206778787 H 0.0 **** 0.06
36216 C 8.483039092577386 37.62254496459113 70.1489282481555 C 0.0 **** -0.24
36217 H 9.326515191117323 37.61683496075332 69.45966014998527 H 0.0 **** 0.06
36218 H 7.565271510620448 37.829814181180694 69.59739462149872 H 0.0 **** 0.06
36219 H 8.635605614723914 38.39473800077596 70.90319645063809 H 0.0 **** 0.06
36220 H 8.403422413257573 36.64988090578669 70.63558830014236 H 0.0 **** 0.06
36221 C 106.67194575525966 9.670313856003048 70.76440292329596 C 0.0 **** -0.24
36222 H 107.02625507844999 8.957726458025832 71.50913524026771 H 0.0 **** 0.06
36223 H 106.46269718113513 9.145560790585336 69.83155810601275 H 0.0 **** 0.06
36224 H 107.43753010328493 10.426066777994663 70.59183931744857 H 0.0 **** 0.06
36225 H 105.7618346259388 10.148999261837531 71.12453774531105 H 0.0 **** 0.06
36226 C 58.89150946547704 87.8771746318742 100.00987219069151 C 0.0 **** -0.24
36227 H 58.06022248345633 88.09574906559658 99.33936915907088 H 0.0 **** 0.06
36228 H 59.65341252073472 87.31285172549067 99.4705850551004 H 0.0 **** 0.06
36229 H 58.53201872267968 87.28831958571828 100.85345872617228 H 0.0 **** 0.06
36230 H 59.31965035581004 88.81086922527237 100.37331250492502 H 0.0 **** 0.06
36231 C 4.372742405150348 66.5674478126221 4.540447210867683 C 0.0 **** -0.24
36232 H 4.064547570579293 65.91171603510091 3.7260714296007222 H 0.0 **** 0.06
36233 H 5.240674012020364 67.14848477059633 4.229021622894493 H 0.0 **** 0.06
36234 H 4.630296741450508 65.96720227713129 5.41277694294638 H 0.0 **** 0.06
36235 H 3.5540393305134614 67.24169808090613 4.792328121625019 H 0.0 **** 0.06
36236 C 81.38139642130713 105.24003973149274 91.2633787746019 C 0.0 **** -0.24
36237 H 81.37056805407084 105.38287331003639 92.34387330860312 H 0.0 **** 0.06
36238 H 82.33819367153646 104.81187389354483 90.96404086804307 H 0.0 **** 0.06
36239 H 81.24287062457486 106.20120309363 90.76815788119268 H 0.0 **** 0.06
36240 H 80.575129364373 104.56451095108693 90.97867824226105 H 0.0 **** 0.06
36241 C 26.78950817601988 42.90624023482211 97.233182548354 C 0.0 **** -0.24
36242 H 26.063723138015774 42.36210550514092 97.83767953976792 H 0.0 **** 0.06
36243 H 27.71902705288187 42.33762598036908 97.18372843523002 H 0.0 **** 0.06
36244 H 26.981373907467614 43.8788403784327 97.68607946646517 H 0.0 **** 0.06
36245 H 26.393371483230325 43.04491478218863 96.22712378706655 H 0.0 **** 0.06
36246 C 30.138458454348466 67.89364797072267 90.346398720467 C 0.0 **** -0.24
36247 H 30.313103556801494 68.49917635779036 89.45702613692018 H 0.0 **** 0.06
36248 H 29.13041919719751 67.47959307483166 90.31239042877607 H 0.0 **** 0.06
36249 H 30.246787904573182 68.51441050005582 91.23538674139934 H 0.0 **** 0.06
36250 H 30.86433397575442 67.08086269792068 90.38058920510255 H 0.0 **** 0.06
36251 C 94.77276180934209 96.13766049276771 80.08569908285992 C 0.0 **** -0.24
36252 H 95.47961621983282 95.82857700709613 80.85654954944195 H 0.0 **** 0.06
36253 H 95.27816574781679 96.16439723560973 79.12035607080082 H 0.0 **** 0.06
36254 H 94.38911752165257 97.12986578846136 80.32300444176678 H 0.0 **** 0.06
36255 H 93.94740949685914 95.42817756299746 80.0443764458343 H 0.0 **** 0.06
36256 C 83.77966256371806 73.62039632624013 92.64133808781872 C 0.0 **** -0.24
36257 H 83.42296024992228 73.00028688525623 91.81893680473397 H 0.0 **** 0.06
36258 H 84.76613646377595 74.01509525514953 92.39731729100637 H 0.0 **** 0.06
36259 H 83.84384229076565 73.01836727282586 93.54834038787968 H 0.0 **** 0.06
36260 H 83.08650820223059 74.44597292861567 92.80213430152835 H 0.0 **** 0.06
36261 C 23.32270573733136 12.713388470839693 0.7742995297598441 C 0.0 **** -0.24
36262 H 22.834039001538642 12.801298214171734 -0.1950985952161659 H 0.0 **** 0.06
36263 H 23.19949690633127 11.698902029714084 1.1536265419647123 H 0.0 **** 0.06
36264 H 22.873900786053547 13.419737570356965 1.4726462854184206 H 0.0 **** 0.06
36265 H 24.38535193534176 12.934835164974551 0.6668302624907767 H 0.0 **** 0.06
36266 C 86.42944495050301 84.41859475949991 13.803069469237872 C 0.0 **** -0.24
36267 H 87.4963214217459 84.59842584062187 13.66626460073643 H 0.0 **** 0.06
36268 H 86.11639558173991 84.80607008422413 14.772210353661809 H 0.0 **** 0.06
36269 H 86.2339450709575 83.3473513220174 13.75943002890078 H 0.0 **** 0.06
36270 H 85.87203499558439 84.92235660723685 13.012341094375607 H 0.0 **** 0.06
36271 C 30.51416156079651 36.99231458687364 102.34483726068325 C 0.0 **** -0.24
36272 H 31.563573810910896 37.28034342799048 102.3961146996183 H 0.0 **** 0.06
36273 H 30.412655735144256 35.940330880199774 102.61234427245378 H 0.0 **** 0.06
36274 H 30.14462405582782 37.14638389750329 101.33081959185063 H 0.0 **** 0.06
36275 H 29.93630315067702 37.601547616451185 103.038924310336 H 0.0 **** 0.06
36276 C 74.32306380089815 0.07257736032224926 36.314236274139205 C 0.0 **** -0.24
36277 H 73.59112047580976 -0.5744208958568677 36.80031290853992 H 0.0 **** 0.06
36278 H 73.81167894012685 0.920763545996504 35.85947718675459 H 0.0 **** 0.06
36279 H 74.84925346695246 -0.49154180528428526 35.54394402366461 H 0.0 **** 0.06
36280 H 75.03788927764921 0.43281569076838444 37.05439371602267 H 0.0 **** 0.06
36281 C 56.34525076617329 11.703739820883612 78.6657485974998 C 0.0 **** -0.24
36282 H 55.54630517843204 10.973148458838153 78.53531319706539 H 0.0 **** 0.06
36283 H 57.306341386135806 11.189453873137637 78.68321098196532 H 0.0 **** 0.06
36284 H 56.200114022712576 12.237747153509162 79.60456039724315 H 0.0 **** 0.06
36285 H 56.32614895171556 12.412846215894007 77.83756297505391 H 0.0 **** 0.06
36286 C 49.43724919405519 109.12655035530895 104.46737912620344 C 0.0 **** -0.24
36287 H 49.39197739057263 110.1687785760019 104.15026878195636 H 0.0 **** 0.06
36288 H 48.447153114486504 108.67832484270326 104.38255113366779 H 0.0 **** 0.06
36289 H 49.77216394522816 109.07680905891803 105.50331832608029 H 0.0 **** 0.06
36290 H 50.137408610910775 108.58413158967912 103.8326581175618 H 0.0 **** 0.06
36291 C 64.76074219356127 3.1215570573464504 4.126792130811893 C 0.0 **** -0.24
36292 H 63.817586245322104 3.601363145501722 3.8657364024316365 H 0.0 **** 0.06
36293 H 65.58344510937332 3.6537292966500985 3.650381920413068 H 0.0 **** 0.06
36294 H 64.74812506600176 2.086421775845892 3.782986976141899 H 0.0 **** 0.06
36295 H 64.89115592180664 3.142407985314776 5.209338525569848 H 0.0 **** 0.06
36296 C 40.45518775275909 54.06551008189837 55.150432302926504 C 0.0 **** -0.24
36297 H 40.740321145700904 53.28670696710989 54.442677527662 H 0.0 **** 0.06
36298 H 41.153005544773805 54.06680214164743 55.988804466351326 H 0.0 **** 0.06
36299 H 39.44654017704656 53.87372068362512 55.51626972253888 H 0.0 **** 0.06
36300 H 40.48292073042089 55.03486470968596 54.65261745365541 H 0.0 **** 0.06
36301 C 24.056018970125677 80.90887164350528 105.98974824530222 C 0.0 **** -0.24
36302 H 24.038029075218674 81.40769124873219 106.95829480872692 H 0.0 **** 0.06
36303 H 24.768806951966468 81.41146188994202 105.33509831669821 H 0.0 **** 0.06
36304 H 23.062471910018814 80.94640668556156 105.5417933919544 H 0.0 **** 0.06
36305 H 24.354315989950265 79.8685395216767 106.12211187991028 H 0.0 **** 0.06
36306 C 54.156624381945825 53.69020451907892 69.19073212006984 C 0.0 **** -0.24
36307 H 53.19546917859197 53.177006215944914 69.15042894930409 H 0.0 **** 0.06
36308 H 54.80975285533069 53.18215386740172 69.90077360011202 H 0.0 **** 0.06
36309 H 54.00501945208402 54.721339018267486 69.51022191603772 H 0.0 **** 0.06
36310 H 54.61524466767322 53.679485694586674 68.2026366814408 H 0.0 **** 0.06
36311 C 37.812304064331926 15.455302813795868 114.38942104130521 C 0.0 **** -0.24
36312 H 37.078603814118026 14.789890858523847 113.93248986441824 H 0.0 **** 0.06
36313 H 38.715012651443345 15.47355324882625 113.77900622997174 H 0.0 **** 0.06
36314 H 38.05612480505661 15.095008974184168 115.38859014442866 H 0.0 **** 0.06
36315 H 37.39774655917307 16.460681009035397 114.45676224062478 H 0.0 **** 0.06
36316 C 40.27648513885228 117.63821692255779 74.0350991446216 C 0.0 **** -0.24
36317 H 39.416907671536265 117.6267363458083 73.36456582555616 H 0.0 **** 0.06
36318 H 39.95875403075217 117.96016501362395 75.0272979917001 H 0.0 **** 0.06
36319 H 41.026074888260325 118.33023341584716 73.6508016954941 H 0.0 **** 0.06
36320 H 40.70256323557619 116.63717467132025 74.09725187443499 H 0.0 **** 0.06
36321 C 13.812873137765138 97.05254344024024 111.95952186408289 C 0.0 **** -0.24
36322 H 14.386615199267638 97.93549747935072 112.24180250682946 H 0.0 **** 0.06
36323 H 14.491599838928483 96.21260485315474 111.80621024843794 H 0.0 **** 0.06
36324 H 13.26835210796727 97.25277544564437 111.03710976291791 H 0.0 **** 0.06
36325 H 13.10709546846693 96.80949726657622 112.75346552506238 H 0.0 **** 0.06
36326 C 98.90556452982437 32.24562119290863 119.64293876632587 C 0.0 **** -0.24
36327 H 99.09267112500214 33.2939438915825 119.87456507069123 H 0.0 **** 0.06
36328 H 99.37087449645327 31.996929756502993 118.68868335947747 H 0.0 **** 0.06
36329 H 97.83093494609284 32.07444997357578 119.57937931212211 H 0.0 **** 0.06
36330 H 99.32786586250691 31.619102937175683 120.42802190816616 H 0.0 **** 0.06
36331 C 99.58349057034087 51.69176097925281 114.2759227255729 C 0.0 **** -0.24
36332 H 99.10588715239146 52.667004369183154 114.17962913524875 H 0.0 **** 0.06
36333 H 100.63291472357548 51.77323870574254 113.99146974695682 H 0.0 **** 0.06
36334 H 99.08335189020829 50.976287550093076 113.62331703098398 H 0.0 **** 0.06
36335 H 99.51247641018466 51.35286258444122 115.30946227294795 H 0.0 **** 0.06
36336 C 13.895923833040172 94.6697118824583 26.848261917270285 C 0.0 **** -0.24
36337 H 14.064095404644775 94.10493882364418 25.9308743845002 H 0.0 **** 0.06
36338 H 14.697985864222517 94.46027351730118 27.5559314663955 H 0.0 **** 0.06
36339 H 12.940458267744702 94.37630121885903 27.28498718092127 H 0.0 **** 0.06
36340 H 13.878749758102629 95.73556100236502 26.620993734152336 H 0.0 **** 0.06
36341 C 98.89534035870471 100.62314708328256 41.08913587104068 C 0.0 **** -0.24
36342 H 98.7070052178494 100.82751191613812 40.03548460960242 H 0.0 **** 0.06
36343 H 98.12217575398415 101.09758967199741 41.69467441982052 H 0.0 **** 0.06
36344 H 99.87111124046325 101.02031471861153 41.36777569584488 H 0.0 **** 0.06
36345 H 98.87950848490155 99.54557777408752 41.25845797424798 H 0.0 **** 0.06
36346 C 74.5012471068751 80.78179720430913 78.7769511941101 C 0.0 **** -0.24
36347 H 75.20097493405038 80.10814311499874 79.27152501169462 H 0.0 **** 0.06
36348 H 73.571278285945 80.82010759777273 79.34378662673637 H 0.0 **** 0.06
36349 H 74.29890452643923 80.41836477002906 77.76962331574461 H 0.0 **** 0.06
36350 H 74.93512213802663 81.78068627984726 78.7223045846358 H 0.0 **** 0.06
36351 C 53.55178094590556 21.729565895804853 107.2503338043841 C 0.0 **** -0.24
36352 H 54.60612531087375 21.504560173461755 107.09398343862804 H 0.0 **** 0.06
36353 H 52.99111506409267 21.490683105912126 106.34661431706004 H 0.0 **** 0.06
36354 H 53.437123783424056 22.789477544247376 107.4808077711555 H 0.0 **** 0.06
36355 H 53.172837257346885 21.133819961883574 108.08131433630558 H 0.0 **** 0.06
36356 C 80.58744972072606 1.6128778905998473 98.79008715419496 C 0.0 **** -0.24
36357 H 80.29557684410099 2.255795011262748 97.95940192199032 H 0.0 **** 0.06
36358 H 80.27563750697266 2.069501961876682 99.72948628960569 H 0.0 **** 0.06
36359 H 81.67033671139646 1.4871268227192473 98.78772419800356 H 0.0 **** 0.06
36360 H 80.10836737916546 0.6395501199881011 98.68133365250358 H 0.0 **** 0.06
36361 C 40.195954280406426 89.16444204736331 62.95899035741933 C 0.0 **** -0.24
36362 H 40.722055811752824 89.90414249398594 63.56253949639001 H 0.0 **** 0.06
36363 H 39.165928634486676 89.48713483485753 62.80631855618281 H 0.0 **** 0.06
36364 H 40.20309935078919 88.20336968648951 63.47407777298073 H 0.0 **** 0.06
36365 H 40.69259215874496 89.06290377483003 61.9944158994434 H 0.0 **** 0.06
36366 C 26.65733739727594 39.178146501417245 100.93628490087411 C 0.0 **** -0.24
36367 H 25.622393836753616 39.11384972159519 101.2704223161362 H 0.0 **** 0.06
36368 H 27.31791276172578 39.210574944298656 101.80393162107876 H 0.0 **** 0.06
36369 H 26.792619405269733 40.08199299216699 100.34280331494227 H 0.0 **** 0.06
36370 H 26.897660158769355 38.305059974864974 100.3290970794234 H 0.0 **** 0.06
36371 C 76.64974009887231 16.32726181651961 51.82215380040487 C 0.0 **** -0.24
36372 H 76.68867540483387 16.337650964578074 50.73318355194322 H 0.0 **** 0.06
36373 H 75.8124872951945 15.709908606209353 52.15042043639324 H 0.0 **** 0.06
36374 H 76.51699794847008 17.34560235125673 52.189373466368814 H 0.0 **** 0.06
36375 H 77.58014174551266 15.918224325928293 52.21532705135718 H 0.0 **** 0.06
36376 C 44.33475544404058 34.00049470181397 105.46243201679414 C 0.0 **** -0.24
36377 H 43.60411287981911 34.54887723377098 106.05647169099586 H 0.0 **** 0.06
36378 H 44.84060127225692 33.2690548134159 106.09305539321628 H 0.0 **** 0.06
36379 H 45.06696347211778 34.697140751808355 105.05472159282255 H 0.0 **** 0.06
36380 H 43.82734415196836 33.486906008260405 104.64547939014193 H 0.0 **** 0.06
36381 C 24.443221777610347 119.66770863443777 90.61436692064962 C 0.0 **** -0.24
36382 H 24.22720729858289 119.67285874135936 89.5463546042962 H 0.0 **** 0.06
36383 H 24.423339970312426 118.64177172099227 90.98417549467285 H 0.0 **** 0.06
36384 H 23.692521673666953 120.25890724868884 91.13997965849262 H 0.0 **** 0.06
36385 H 25.429818167879056 120.09729682671073 90.78695792513668 H 0.0 **** 0.06
36386 C 116.99214875828699 25.178206669430523 85.28168980600452 C 0.0 **** -0.24
36387 H 117.23237404146563 26.21185768044296 85.52884053147238 H 0.0 **** 0.06
36388 H 117.53918715211977 24.50947347994574 85.94751946866876 H 0.0 **** 0.06
36389 H 117.27715666580791 24.974718201789386 84.24925041735679 H 0.0 **** 0.06
36390 H 115.92098557788326 25.015279771658612 85.40238536663236 H 0.0 **** 0.06
36391 C 34.5083517317838 14.419068502925683 69.47478903006643 C 0.0 **** -0.24
36392 H 35.35529224467236 14.953735228111732 69.90474063894962 H 0.0 **** 0.06
36393 H 34.18952577376147 14.921279778663472 68.56030005449193 H 0.0 **** 0.06
36394 H 33.6855847592528 14.4078463001776 70.189096846018 H 0.0 **** 0.06
36395 H 34.80456648551498 13.39572159335546 69.243910140286 H 0.0 **** 0.06
36396 C 20.253201490743834 106.5350297867854 42.75513817474507 C 0.0 **** -0.24
36397 H 19.74994690633912 106.324403556525 43.69982153556737 H 0.0 **** 0.06
36398 H 20.544726798384033 105.59723647897437 42.28259948261393 H 0.0 **** 0.06
36399 H 21.141149883903267 107.13900822273985 42.943904888226 H 0.0 **** 0.06
36400 H 19.576854204485926 107.0789617642422 42.09640041693794 H 0.0 **** 0.06
36401 C 83.42700495019707 96.79612188137008 87.15862605092877 C 0.0 **** -0.24
36402 H 82.8727292127216 96.20496234132969 87.88706334417768 H 0.0 **** 0.06
36403 H 82.88151765884214 96.81300191319659 86.21372026062838 H 0.0 **** 0.06
36404 H 84.41056239058517 96.3524086436068 87.00248994549622 H 0.0 **** 0.06
36405 H 83.54239686111785 97.81440912846804 87.5291687425775 H 0.0 **** 0.06
36406 C 113.18450653340592 89.22266772337355 107.94546812583656 C 0.0 **** -0.24
36407 H 114.2183549305754 89.15279787625474 107.6071090986124 H 0.0 **** 0.06
36408 H 112.7892389816443 90.20835534979895 107.70131744057892 H 0.0 **** 0.06
36409 H 113.1449881489173 89.06985655698318 109.02397597154777 H 0.0 **** 0.06
36410 H 112.58768076838106 88.45792860185489 107.44847194131574 H 0.0 **** 0.06
36411 C 61.25755126227252 20.701964238065102 97.48093035581124 C 0.0 **** -0.24
36412 H 62.16725411640352 20.10110941549334 97.47569997105538 H 0.0 **** 0.06
36413 H 61.18676709608717 21.24315440785216 98.42458492533137 H 0.0 **** 0.06
36414 H 60.39222441841688 20.05006121645937 97.36884585978797 H 0.0 **** 0.06
36415 H 61.28710102299731 21.412708453513005 96.6552636060311 H 0.0 **** 0.06
36416 C 16.40146528338886 64.9102945344003 1.0918403385094848 C 0.0 **** -0.24
36417 H 16.2002481847843 65.03216032784354 2.155360645235419 H 0.0 **** 0.06
36418 H 16.942725063363014 65.78132051597487 0.7227486065729636 H 0.0 **** 0.06
36419 H 15.458912760058638 64.81323639837709 0.5529501872608762 H 0.0 **** 0.06
36420 H 17.003387909464948 64.01547585812767 0.9355112573285851 H 0.0 **** 0.06
36421 C 17.7796777486 3.6940755975982427 94.46846359827933 C 0.0 **** -0.24
36422 H 17.95376545915046 2.917056430651911 93.72463514342101 H 0.0 **** 0.06
36423 H 17.273285630854748 4.539452318602429 94.00008075916946 H 0.0 **** 0.06
36424 H 18.734326530379224 4.024538122592304 94.87846528515584 H 0.0 **** 0.06
36425 H 17.157310125346495 3.2966688343613555 95.27062727900571 H 0.0 **** 0.06
36426 C 22.12160820606178 104.31793934572659 26.576714853926774 C 0.0 **** -0.24
36427 H 22.775378507296097 104.37834382882178 27.44756035974541 H 0.0 **** 0.06
36428 H 21.73174329379836 105.30981265735892 26.347763287293105 H 0.0 **** 0.06
36429 H 21.293857744507505 103.6414393420024 26.790221445148887 H 0.0 **** 0.06
36430 H 22.686838081819673 103.94359321406563 25.724319884250974 H 0.0 **** 0.06
36431 C 6.502400966401506 80.54975318101677 7.467162800276782 C 0.0 **** -0.24
36432 H 6.205397674154764 79.95183264606524 8.32890360779939 H 0.0 **** 0.06
36433 H 6.182252717176631 81.58171434425654 7.614038379542876 H 0.0 **** 0.06
36434 H 6.034452282877577 80.1482053743253 6.568223130912912 H 0.0 **** 0.06
36435 H 7.586252139958315 80.51755585462524 7.3580799383998965 H 0.0 **** 0.06
36436 C 33.26511043690522 12.002941690143984 115.84128871501265 C 0.0 **** -0.24
36437 H 33.350638027672574 10.950176699141736 115.57104611085624 H 0.0 **** 0.06
36438 H 33.62094708317386 12.61868267848621 115.01518009523299 H 0.0 **** 0.06
36439 H 33.86770062930276 12.199970802763971 116.72826489794048 H 0.0 **** 0.06
36440 H 32.22154154277146 12.240597638775881 116.05004646387135 H 0.0 **** 0.06
36441 C 27.012466135200242 94.39974468035388 19.278330886675974 C 0.0 **** -0.24
36442 H 26.225118560723388 95.01657216013697 18.843968319521593 H 0.0 **** 0.06
36443 H 26.650539003142427 93.94584490193552 20.200644742036673 H 0.0 **** 0.06
36444 H 27.881739908476533 95.02014250963774 19.493906183136744 H 0.0 **** 0.06
36445 H 27.290881573356415 93.61746835665417 18.572277262894772 H 0.0 **** 0.06
36446 C 24.03411229525338 108.41716394891611 110.3138389272454 C 0.0 **** -0.24
36447 H 23.51080004758674 109.24894969711934 110.786333306227 H 0.0 **** 0.06
36448 H 23.725719688052124 108.33938349913353 109.27123817218373 H 0.0 **** 0.06
36449 H 23.791698220743825 107.49164582714735 110.83647051217812 H 0.0 **** 0.06
36450 H 25.109278713483775 108.59128160822175 110.36237111978309 H 0.0 **** 0.06
36451 C 28.489858465730492 63.485213253771796 16.27899753073916 C 0.0 **** -0.24
36452 H 28.6226625217202 62.559558031292745 16.838833764979597 H 0.0 **** 0.06
36453 H 28.766197579591335 63.321112008567916 15.236840788266932 H 0.0 **** 0.06
36454 H 29.12426353049358 64.26213696036879 16.705193349510125 H 0.0 **** 0.06
36455 H 27.446359269019865 63.79589859436134 16.33394471670894 H 0.0 **** 0.06
36456 C 109.1788366463997 29.195346167681976 83.54338956193595 C 0.0 **** -0.24
36457 H 108.65257951788064 28.757330664190363 82.69469465956251 H 0.0 **** 0.06
36458 H 109.87617871755651 29.952959818797837 83.18557573983912 H 0.0 **** 0.06
36459 H 109.72775491618657 28.41490744239033 84.07117768779568 H 0.0 **** 0.06
36460 H 108.45816537212463 29.6543341190781 84.2189286124111 H 0.0 **** 0.06
36461 C 18.423709705336364 102.48234366087593 82.45362911373923 C 0.0 **** -0.24
36462 H 18.458958171233576 103.4604592211906 81.97303815360974 H 0.0 **** 0.06
36463 H 18.886290139717318 102.54555131376043 83.43854700876483 H 0.0 **** 0.06
36464 H 18.96280037323794 101.75812682723154 81.84292349155277 H 0.0 **** 0.06
36465 H 17.385125327565504 102.16754263517817 82.55862421538126 H 0.0 **** 0.06
36466 C 111.73878299604398 14.302117233859406 32.77200251198411 C 0.0 **** -0.24
36467 H 112.55895519996409 14.267585817397958 32.05497792344795 H 0.0 **** 0.06
36468 H 111.12803992047336 13.404078575412996 32.66931999318791 H 0.0 **** 0.06
36469 H 111.12546475208376 15.182394365836217 32.57975000506474 H 0.0 **** 0.06
36470 H 112.14142994777376 14.354106883693873 33.783357846900856 H 0.0 **** 0.06
36471 C 109.60954232733226 81.6582273445456 71.06156261764659 C 0.0 **** -0.24
36472 H 108.727687460494 81.49191481081226 71.67971245954988 H 0.0 **** 0.06
36473 H 110.41201309418909 80.99496558440973 71.38790256523998 H 0.0 **** 0.06
36474 H 109.93267155819314 82.69516482626659 71.16039258059755 H 0.0 **** 0.06
36475 H 109.36774432948147 81.45111793371984 70.01970731190872 H 0.0 **** 0.06
36476 C 58.210384852102266 116.5316265537197 122.06377479799892 C 0.0 **** -0.24
36477 H 58.06203794473885 115.80404712521359 121.26624143666885 H 0.0 **** 0.06
36478 H 59.24209635686219 116.48341104733744 122.41284039744184 H 0.0 **** 0.06
36479 H 57.53644192172453 116.3069859125947 122.89042020726077 H 0.0 **** 0.06
36480 H 58.00122072149151 117.53297041756994 121.68592691397387 H 0.0 **** 0.06
36481 C 81.85363226829185 25.41753381106446 59.7406325566671 C 0.0 **** -0.24
36482 H 82.39475518095713 26.037496930732118 59.02668733113577 H 0.0 **** 0.06
36483 H 81.14600231602475 24.78205968057148 59.208178232119 H 0.0 **** 0.06
36484 H 81.31469419543208 26.055326660363903 60.44049904778158 H 0.0 **** 0.06
36485 H 82.56150127674863 24.793984609585323 60.288398100999125 H 0.0 **** 0.06
36486 C 56.243983177087614 38.08462791868075 48.202340013521834 C 0.0 **** -0.24
36487 H 56.35388031642606 38.88831785750051 48.92989563836994 H 0.0 **** 0.06
36488 H 55.839143756255964 37.201274233263206 48.69711621500676 H 0.0 **** 0.06
36489 H 57.21759471586819 37.847211684203074 47.77469976759029 H 0.0 **** 0.06
36490 H 55.56523005139894 38.400831521152696 47.410516433747176 H 0.0 **** 0.06
36491 C 31.154889568958538 22.545569239797118 74.98769432324073 C 0.0 **** -0.24
36492 H 31.928258307112074 21.786047831965703 74.87366297699063 H 0.0 **** 0.06
36493 H 31.597497051269443 23.45793190576927 75.38937230088393 H 0.0 **** 0.06
36494 H 30.38687081497698 22.183042521182728 75.66967497168594 H 0.0 **** 0.06
36495 H 30.708011064824127 22.756330531305366 74.01548268104406 H 0.0 **** 0.06
36496 C 34.15820148134637 120.74898508316684 92.6830038433105 C 0.0 **** -0.24
36497 H 34.0099421405491 121.69079804173757 93.21207254659106 H 0.0 **** 0.06
36498 H 33.76329074176974 119.92969378308307 93.28455139368117 H 0.0 **** 0.06
36499 H 35.22291154453387 120.59333517035722 92.51065627674956 H 0.0 **** 0.06
36500 H 33.63577388983032 120.78270230780781 91.72753975346731 H 0.0 **** 0.06
36501 C 68.50393929274102 51.34524566619586 94.62674123890702 C 0.0 **** -0.24
36502 H 69.24525745407246 50.818614930813084 95.22715071698681 H 0.0 **** 0.06
36503 H 68.96408269007279 52.21993611086482 94.16762493422533 H 0.0 **** 0.06
36504 H 67.67803249401567 51.6602726984193 95.26388409108762 H 0.0 **** 0.06
36505 H 68.12856077270496 50.68099570339564 93.84752037764417 H 0.0 **** 0.06
36506 C 78.450908998908 118.0142100512031 9.252165669244842 C 0.0 **** -0.24
36507 H 77.73185997820727 118.05994635309554 8.43411686987746 H 0.0 **** 0.06
36508 H 79.03879711588158 118.93175472900616 9.270912438155896 H 0.0 **** 0.06
36509 H 79.11345848670535 117.16113885004523 9.10482983442392 H 0.0 **** 0.06
36510 H 77.91949784165769 117.90261405992877 10.197049059383332 H 0.0 **** 0.06
36511 C 59.83305805350914 39.45123232322601 106.80104776595917 C 0.0 **** -0.24
36512 H 58.85453610790402 39.3141359436174 107.26214272222111 H 0.0 **** 0.06
36513 H 60.47864863250904 38.61371854612648 107.06339590799931 H 0.0 **** 0.06
36514 H 60.2773141861416 40.37914680106755 107.16166994800125 H 0.0 **** 0.06
36515 H 59.72092216755434 39.49951464713433 105.71833338171967 H 0.0 **** 0.06
36516 C 49.23626674057792 79.29600694692044 22.741557180317187 C 0.0 **** -0.24
36517 H 48.17326372462455 79.05296068633405 22.72751097231506 H 0.0 **** 0.06
36518 H 49.55739922813521 79.57810151147103 21.739165701285458 H 0.0 **** 0.06
36519 H 49.80205189335018 78.42614246551949 23.074455131571398 H 0.0 **** 0.06
36520 H 49.409795691681865 80.12573330813649 23.426606071790417 H 0.0 **** 0.06
36521 C 8.362562717966235 80.12078868565658 109.51062777947425 C 0.0 **** -0.24
36522 H 8.404260441932294 80.38778657474012 110.56629274532796 H 0.0 **** 0.06
36523 H 9.117220368083746 80.686801753087 108.96341553955477 H 0.0 **** 0.06
36524 H 7.375023668705303 80.35634325860508 109.11538641841295 H 0.0 **** 0.06
36525 H 8.55526944107893 79.0538666942139 109.39840608208985 H 0.0 **** 0.06
36526 C 44.47139855986778 48.00679321288342 28.138217209904866 C 0.0 **** -0.24
36527 H 45.12809331128891 48.87332495868159 28.211646315311015 H 0.0 **** 0.06
36528 H 44.25072096129129 47.63372594321993 29.137936318027272 H 0.0 **** 0.06
36529 H 44.96357902762213 47.22665639585122 27.558337905190314 H 0.0 **** 0.06
36530 H 43.5438411556531 48.29538433159634 27.643995047195546 H 0.0 **** 0.06
36531 C 75.16689606865316 44.05079013143501 116.35970691883082 C 0.0 **** -0.24
36532 H 75.80478440067333 44.779833923870086 115.85949818015959 H 0.0 **** 0.06
36533 H 75.65706931826901 43.076485475360556 116.35482501965117 H 0.0 **** 0.06
36534 H 74.21457363453163 43.981379119905625 115.834822003759 H 0.0 **** 0.06
36535 H 74.99369923203324 44.36520927960299 117.38810980352986 H 0.0 **** 0.06
36536 C 78.91565678150147 91.81816745019557 20.260639251334794 C 0.0 **** -0.24
36537 H 78.7107172481472 91.7971168110904 19.190217934597527 H 0.0 **** 0.06
36538 H 79.27635442793547 92.80719603520578 20.542111739998276 H 0.0 **** 0.06
36539 H 79.67447544798341 91.07298982140847 20.499184124103678 H 0.0 **** 0.06
36540 H 78.00107551363743 91.59388800362501 20.80909064680897 H 0.0 **** 0.06
36541 C 3.5003622006409625 13.175974865444061 63.13364838514775 C 0.0 **** -0.24
36542 H 3.7255289055277565 13.794179808958006 62.265606545289415 H 0.0 **** 0.06
36543 H 4.121013806698588 12.279588003039237 63.11235600591621 H 0.0 **** 0.06
36544 H 2.4483927974671094 12.890850446841739 63.11365881846294 H 0.0 **** 0.06
36545 H 3.7066443134214833 13.73850833645713 64.04414929553099 H 0.0 **** 0.06
36546 C 23.693632703736682 96.21532536243888 108.31840472277764 C 0.0 **** -0.24
36547 H 24.479145799231162 96.5480613682802 107.63983043637137 H 0.0 **** 0.06
36548 H 24.073537428879717 96.21453864399697 109.34092709855219 H 0.0 **** 0.06
36549 H 23.380203658843158 95.20805939843996 108.04613357706108 H 0.0 **** 0.06
36550 H 22.84211512717866 96.89261057457654 108.24810733453825 H 0.0 **** 0.06
36551 C 20.104084082201155 9.049738648943503 74.34482561249513 C 0.0 **** -0.24
36552 H 20.542690510506674 10.047203190508753 74.38165019561401 H 0.0 **** 0.06
36553 H 19.143285293803757 9.093778542299901 73.83088167888337 H 0.0 **** 0.06
36554 H 19.957070283428692 8.680479138589476 75.35954057681386 H 0.0 **** 0.06
36555 H 20.773289445173475 8.37848609723892 73.80735349413357 H 0.0 **** 0.06
36556 C 16.780827626223186 46.22670587750814 111.34463960140424 C 0.0 **** -0.24
36557 H 17.43340889523546 45.79350609442651 112.10229634073409 H 0.0 **** 0.06
36558 H 16.000621745492765 45.510153444912426 111.08517168144257 H 0.0 **** 0.06
36559 H 17.364865490621128 46.46595314705531 110.45610618561034 H 0.0 **** 0.06
36560 H 16.32473036193062 47.13583234138381 111.73497717367597 H 0.0 **** 0.06
36561 C 83.54995975855434 96.11672170293116 41.4898024468822 C 0.0 **** -0.24
36562 H 84.33585802830325 96.05292211155472 42.24185869872147 H 0.0 **** 0.06
36563 H 82.8658831177404 96.92587946023929 41.74700867567899 H 0.0 **** 0.06
36564 H 83.00177085815503 95.1751291098015 41.45650900169822 H 0.0 **** 0.06
36565 H 83.99596036572967 96.31213684028481 40.514926312512166 H 0.0 **** 0.06
36566 C 16.204717873913637 51.968099079249356 40.27518310925196 C 0.0 **** -0.24
36567 H 16.72551751297692 52.87619625454465 39.972128058585 H 0.0 **** 0.06
36568 H 16.612534851815838 51.116740881980974 39.72948016171774 H 0.0 **** 0.06
36569 H 15.142426834134824 52.06761153775605 40.054619998340236 H 0.0 **** 0.06
36570 H 16.339934859387085 51.81248820426285 41.34629600945756 H 0.0 **** 0.06
36571 C 81.52573784816937 44.328995177010704 57.74568771214203 C 0.0 **** -0.24
36572 H 81.93172158968065 43.490393971439936 58.31297286804224 H 0.0 **** 0.06
36573 H 82.32875916232561 45.02725155789644 57.50549812940025 H 0.0 **** 0.06
36574 H 80.76723424171749 44.83682528874383 58.34168435981104 H 0.0 **** 0.06
36575 H 81.07729892466136 43.95951524233996 56.82347177296489 H 0.0 **** 0.06
36576 C 2.5093226459597133 20.212096450835556 52.01525823380911 C 0.0 **** -0.24
36577 H 2.9780301846497252 19.22970123600097 52.069332186737 H 0.0 **** 0.06
36578 H 2.91101113765923 20.850008605848757 52.80327893899093 H 0.0 **** 0.06
36579 H 1.4320999428239105 20.10746841058585 52.14547482966188 H 0.0 **** 0.06
36580 H 2.7167611761020964 20.660729978636358 51.043577543813385 H 0.0 **** 0.06
36581 C 103.51939175293123 47.1270974971832 12.595219663203125 C 0.0 **** -0.24
36582 H 103.98126047684798 47.70315484260459 13.397213653244478 H 0.0 **** 0.06
36583 H 102.58550678965199 46.69363079938856 12.951158632454167 H 0.0 **** 0.06
36584 H 104.19535237766914 46.330947777598 12.284584924874878 H 0.0 **** 0.06
36585 H 103.31684759085681 47.7823625445821 11.747561858011352 H 0.0 **** 0.06
36586 C 33.508311380045484 96.92486624925152 86.84438435717857 C 0.0 **** -0.24
36587 H 34.21721376200537 96.52112804909763 87.56708276807339 H 0.0 **** 0.06
36588 H 33.98787140036649 97.71718385966881 86.26952165499614 H 0.0 **** 0.06
36589 H 32.64380465616148 97.32866192415901 87.37071815820059 H 0.0 **** 0.06
36590 H 33.185799950608725 96.13111205364032 86.1701033934826 H 0.0 **** 0.06
36591 C 23.645857335803782 121.57140624525948 116.02225334567083 C 0.0 **** -0.24
36592 H 24.54207334096307 122.19004599293118 115.9748311207191 H 0.0 **** 0.06
36593 H 23.820068102802423 120.63784775037065 115.48611498436657 H 0.0 **** 0.06
36594 H 22.8118565141545 122.10331603299149 115.5660059836859 H 0.0 **** 0.06
36595 H 23.411467838811035 121.35301444611419 117.06468645218337 H 0.0 **** 0.06
36596 C 43.48451302788317 49.712036886410345 119.9029958056284 C 0.0 **** -0.24
36597 H 42.97779616891606 49.468527597865176 120.83749698265119 H 0.0 **** 0.06
36598 H 44.37534297177015 50.3032295057468 120.1164213354967 H 0.0 **** 0.06
36599 H 42.81230403101986 50.284266126728596 119.263508590212 H 0.0 **** 0.06
36600 H 43.77232411372725 48.790775822630934 119.39560541310074 H 0.0 **** 0.06
36601 C 7.802488252717069 87.0193063405402 46.04345128954574 C 0.0 **** -0.24
36602 H 8.28192163344167 86.66229713179385 46.95548431738084 H 0.0 **** 0.06
36603 H 7.418828028700716 88.02647877832476 46.20582626947362 H 0.0 **** 0.06
36604 H 6.97930479736587 86.3548290902691 45.782255822806036 H 0.0 **** 0.06
36605 H 8.530317241340242 87.0330550214297 45.23211099627528 H 0.0 **** 0.06
36606 C 10.714181576754171 6.636827904605344 85.36472272180694 C 0.0 **** -0.24
36607 H 10.236046687517348 7.240562513994352 84.59269115764786 H 0.0 **** 0.06
36608 H 11.127226685885116 5.733885508254534 84.91627112400332 H 0.0 **** 0.06
36609 H 9.976757141762995 6.36367412144935 86.11974878965151 H 0.0 **** 0.06
36610 H 11.514526924755003 7.210983390090984 85.8298999436829 H 0.0 **** 0.06
36611 C 121.04698397826338 7.431708966894973 17.39747442768163 C 0.0 **** -0.24
36612 H 121.70012851853788 8.149781742956748 16.90230396316366 H 0.0 **** 0.06
36613 H 120.49542833290782 7.932632036352132 18.194615390809815 H 0.0 **** 0.06
36614 H 121.64659614373375 6.6272179622963705 17.821072700149614 H 0.0 **** 0.06
36615 H 120.34483362425578 7.019903104099527 16.67280835238313 H 0.0 **** 0.06
36616 C 20.084233675067782 34.41061847421486 90.53491220603505 C 0.0 **** -0.24
36617 H 20.524618113081132 33.58713435196063 89.9718734591219 H 0.0 **** 0.06
36618 H 19.484601092358968 35.02725600597569 89.86610730655877 H 0.0 **** 0.06
36619 H 20.878661920443804 35.01530441900712 90.97401798169108 H 0.0 **** 0.06
36620 H 19.451688699232932 34.010451355614975 91.32685110616924 H 0.0 **** 0.06
36621 C 23.7897050221992 58.076913490192055 24.225651520032585 C 0.0 **** -0.24
36622 H 24.512585712514806 58.72041766832831 23.72376006336563 H 0.0 **** 0.06
36623 H 22.779013051239303 58.38855384960186 23.95851249271064 H 0.0 **** 0.06
36624 H 23.921117611787167 58.156562456549466 25.304412781892466 H 0.0 **** 0.06
36625 H 23.94627411053932 57.044247411832316 23.91525343141413 H 0.0 **** 0.06
36626 C 1.7710177293398601 80.93961889696394 14.768421762521115 C 0.0 **** -0.24
36627 H 1.9143710635937623 81.08326750721082 15.839467531754963 H 0.0 **** 0.06
36628 H 0.8051062713213355 81.35069221615376 14.473708426039963 H 0.0 **** 0.06
36629 H 1.7995998422444472 79.87502877146986 14.538163199703348 H 0.0 **** 0.06
36630 H 2.564805383839314 81.45115535482475 14.22413164100226 H 0.0 **** 0.06
36631 C 8.589058951840503 115.38330674838676 9.350863409436386 C 0.0 **** -0.24
36632 H 8.169043360953545 115.5506470430301 8.358835041665543 H 0.0 **** 0.06
36633 H 7.88709308688594 115.73835673915212 10.106137943519855 H 0.0 **** 0.06
36634 H 9.529982430511119 115.92578290987643 9.443802954960347 H 0.0 **** 0.06
36635 H 8.769136655940716 114.31754030647275 9.494198964893144 H 0.0 **** 0.06
36636 C 116.12787283377894 120.98248511734269 84.3570037411759 C 0.0 **** -0.24
36637 H 115.20635935145211 120.96273680991511 84.93838056051825 H 0.0 **** 0.06
36638 H 115.95609545658186 121.51879545992455 83.42293149391017 H 0.0 **** 0.06
36639 H 116.44076693701479 119.96187233715148 84.13762749216792 H 0.0 **** 0.06
36640 H 116.90663208099119 121.48772899813605 84.927698710052 H 0.0 **** 0.06
36641 C 88.43179887281292 3.4558511657745807 87.08290600989011 C 0.0 **** -0.24
36642 H 88.85478172410149 4.447178630433228 86.91821681337916 H 0.0 **** 0.06
36643 H 89.16597021288109 2.6975963153606735 86.80879616043865 H 0.0 **** 0.06
36644 H 87.53881951172988 3.3361452345870024 86.47012918944671 H 0.0 **** 0.06
36645 H 88.16956258084983 3.3438341620202188 88.13513054337068 H 0.0 **** 0.06
36646 C 5.094715226037639 114.90801446544742 111.480052097335 C 0.0 **** -0.24
36647 H 5.611176896723478 115.39035847410372 110.64977035868623 H 0.0 **** 0.06
36648 H 5.747331524181021 114.89357645056543 112.35367026810749 H 0.0 **** 0.06
36649 H 4.836848264144461 113.88647251649337 111.20259805502991 H 0.0 **** 0.06
36650 H 4.18591077696342 115.4621059012627 111.71420645834365 H 0.0 **** 0.06
36651 C 120.26424438394896 113.63336592724596 79.47889428122076 C 0.0 **** -0.24
36652 H 120.40056037853239 114.70597493698627 79.61883363140265 H 0.0 **** 0.06
36653 H 119.53283330452908 113.26442780154116 80.19800875543783 H 0.0 **** 0.06
36654 H 121.2154188177261 113.123989361317 79.63158615026933 H 0.0 **** 0.06
36655 H 119.90746199296049 113.44230102759099 78.46687073775695 H 0.0 **** 0.06
36656 C 23.79415090946381 62.482432240302956 83.34503878679595 C 0.0 **** -0.24
36657 H 23.805949265841164 63.22301063631073 84.14435069929965 H 0.0 **** 0.06
36658 H 24.641536304336086 61.80717271878282 83.46248956469282 H 0.0 **** 0.06
36659 H 23.86222814495588 62.98817504391374 82.3812043055525 H 0.0 **** 0.06
36660 H 22.865504369449383 61.9132807391255 83.3914534625541 H 0.0 **** 0.06
36661 C 78.00798528394975 47.178555105625776 99.2234299040993 C 0.0 **** -0.24
36662 H 77.38128375891284 46.73828038794471 98.4492701149504 H 0.0 **** 0.06
36663 H 77.57942054774628 48.12964811858893 99.54062151598143 H 0.0 **** 0.06
36664 H 79.01017409871162 47.34470348904796 98.82886127962325 H 0.0 **** 0.06
36665 H 78.06211591372815 46.501985645198374 100.0762832124185 H 0.0 **** 0.06
36666 C 66.46659665070817 5.465244130268729 95.40193125687762 C 0.0 **** -0.24
36667 H 65.75109462669349 4.886149711931438 94.81766533416302 H 0.0 **** 0.06
36668 H 66.82972194210947 4.8596414535526975 96.23335271952396 H 0.0 **** 0.06
36669 H 65.97988862361754 6.359663292003944 95.78868401578845 H 0.0 **** 0.06
36670 H 67.30563969050817 5.75254322354229 94.76837689644785 H 0.0 **** 0.06
36671 C 111.4374396667964 43.927352917560825 62.67100985619169 C 0.0 **** -0.24
36672 H 111.89813247467958 44.843137542061584 62.30043625461303 H 0.0 **** 0.06
36673 H 112.18408232203123 43.13525536660612 62.70888129019437 H 0.0 **** 0.06
36674 H 110.62731745969009 43.63317374939254 62.00254007817608 H 0.0 **** 0.06
36675 H 111.03857744112824 44.100748792973064 63.67049368583014 H 0.0 **** 0.06
36676 C 18.59994599915934 92.87122405896454 18.142988419229283 C 0.0 **** -0.24
36677 H 18.58966924253179 93.50939773825587 19.026740583816007 H 0.0 **** 0.06
36678 H 18.65894278759714 93.4907352373308 17.247863605937454 H 0.0 **** 0.06
36679 H 17.687520619784127 92.27541330507805 18.11446449793229 H 0.0 **** 0.06
36680 H 19.464860344244773 92.20884741396665 18.18401898407194 H 0.0 **** 0.06
36681 C 48.0584757448905 29.388122886825634 57.628904452533966 C 0.0 **** -0.24
36682 H 47.011889094128975 29.61746419856881 57.43044531028752 H 0.0 **** 0.06
36683 H 48.201865188362575 28.30735792789673 57.61394647579443 H 0.0 **** 0.06
36684 H 48.336282215632195 29.77797660422239 58.607267205178964 H 0.0 **** 0.06
36685 H 48.682860159084726 29.84857452514006 56.86230442538736 H 0.0 **** 0.06
36686 C 60.68510015497598 110.70558292787152 16.80183859218792 C 0.0 **** -0.24
36687 H 61.2845135847794 111.55765722765777 16.482324869894484 H 0.0 **** 0.06
36688 H 60.905405543009955 110.47655665959937 17.844140176835964 H 0.0 **** 0.06
36689 H 60.92342693440332 109.84122755806152 16.181155638728114 H 0.0 **** 0.06
36690 H 59.62672035529214 110.9462085247468 16.697883342776663 H 0.0 **** 0.06
36691 C 44.66104312695336 47.115455658619766 41.31690554194353 C 0.0 **** -0.24
36692 H 43.996656804625616 47.70995756202484 40.69041500905831 H 0.0 **** 0.06
36693 H 44.69726820150521 47.54403234871211 42.31822360699692 H 0.0 **** 0.06
36694 H 45.66177855673914 47.113321682369644 40.88564675758684 H 0.0 **** 0.06
36695 H 44.28720254762686 46.092376340407526 41.37165162630919 H 0.0 **** 0.06
36696 C 12.210249076872508 45.758631498954884 58.34757808088193 C 0.0 **** -0.24
36697 H 13.082185605797115 45.19551387527952 58.015752334319984 H 0.0 **** 0.06
36698 H 12.02113120779591 46.57785772554979 57.65401990723808 H 0.0 **** 0.06
36699 H 12.395839003481523 46.161206001950376 59.34346175303949 H 0.0 **** 0.06
36700 H 11.342739399841918 45.100370898769114 58.378497348922565 H 0.0 **** 0.06
36701 C 42.48940917468027 59.36425196015295 28.63747321290873 C 0.0 **** -0.24
36702 H 41.74146943190896 59.66171848842429 27.901628796433215 H 0.0 **** 0.06
36703 H 41.990898260038186 59.0600657720154 29.558590381239185 H 0.0 **** 0.06
36704 H 43.15113871591908 60.20583992568478 28.84270198588439 H 0.0 **** 0.06
36705 H 43.0714423188541 58.531050336437296 28.245972893759756 H 0.0 **** 0.06
36706 C 0.33405756751143656 110.61183358249372 115.43895616643553 C 0.0 **** -0.24
36707 H 0.9276060157153125 110.61766074358815 114.52452605102155 H 0.0 **** 0.06
36708 H -0.5306881468240192 111.26431089591031 115.31473305694749 H 0.0 **** 0.06
36709 H 0.9435593505100996 110.97048625266828 116.26888809908561 H 0.0 **** 0.06
36710 H -0.003144199011529736 109.59695798179405 115.64700555818288 H 0.0 **** 0.06
36711 C 77.61495307541358 77.72631919490061 114.82151879426081 C 0.0 **** -0.24
36712 H 78.49670270531664 78.30420626640182 114.54459957704569 H 0.0 **** 0.06
36713 H 77.05177889852712 77.47165053005926 113.92351552864719 H 0.0 **** 0.06
36714 H 76.98761046959439 78.31839690336028 115.48756485166044 H 0.0 **** 0.06
36715 H 77.92413122138433 76.81293659326366 115.32892216682501 H 0.0 **** 0.06
36716 C 84.21774378154291 37.057715856594044 100.73226418627974 C 0.0 **** -0.24
36717 H 84.16130468358725 37.930247232559665 101.38338842569408 H 0.0 **** 0.06
36718 H 84.00474635066956 36.15791713062703 101.30995139501658 H 0.0 **** 0.06
36719 H 85.21888518401059 36.98783524948371 100.30597465323785 H 0.0 **** 0.06
36720 H 83.48732563011814 37.15545067939129 99.92973549355446 H 0.0 **** 0.06
36721 C 81.22648857283448 85.94968533533802 67.63037323561886 C 0.0 **** -0.24
36722 H 81.7764359195516 85.7907832659534 68.5586637345321 H 0.0 **** 0.06
36723 H 80.34793447347604 86.56228361463957 67.83016591140938 H 0.0 **** 0.06
36724 H 80.9152307771711 84.98787959431596 67.22390505938549 H 0.0 **** 0.06
36725 H 81.86904665050284 86.4579246590391 66.9106892124818 H 0.0 **** 0.06
36726 C 49.466910196303814 8.077023180842843 31.99681248681381 C 0.0 **** -0.24
36727 H 48.85893286405931 8.01613681804514 32.89957965292524 H 0.0 **** 0.06
36728 H 49.61828579869666 9.123812756465782 31.731902723565653 H 0.0 **** 0.06
36729 H 48.955854729725075 7.566482663545514 31.180527719067925 H 0.0 **** 0.06
36730 H 50.4315119025278 7.602923603700759 32.175502765807266 H 0.0 **** 0.06
36731 C 58.5335262128589 39.14899146145092 118.40731714861818 C 0.0 **** -0.24
36732 H 58.103514964803736 38.28836886110565 118.92056002032179 H 0.0 **** 0.06
36733 H 59.5036856704792 38.87535064312385 117.99129970033631 H 0.0 **** 0.06
36734 H 58.65836118564275 39.96813711161309 119.1151919528375 H 0.0 **** 0.06
36735 H 57.86738946041655 39.461453166144565 117.60348780951138 H 0.0 **** 0.06
36736 C 113.5351489947681 38.85689529055344 87.79756194969596 C 0.0 **** -0.24
36737 H 113.00595416928314 39.795194898377076 87.9671640542274 H 0.0 **** 0.06
36738 H 113.3355683275785 38.17415973299285 88.62389292620398 H 0.0 **** 0.06
36739 H 114.60534261777241 39.050467670096964 87.73568796985666 H 0.0 **** 0.06
36740 H 113.19161024083184 38.4095288920297 86.86504249176747 H 0.0 **** 0.06
36741 C 62.13237101145623 6.050390586684813 28.442801903031324 C 0.0 **** -0.24
36742 H 61.431683957648715 6.528983348344951 27.758229203541568 H 0.0 **** 0.06
36743 H 61.68842675452683 5.994374539804355 29.436648380185858 H 0.0 **** 0.06
36744 H 63.0525981048099 6.63374117894864 28.48723575568291 H 0.0 **** 0.06
36745 H 62.35674356967789 5.044278365215931 28.086866026169965 H 0.0 **** 0.06
36746 C 82.53072320183904 72.69648411020876 77.59558664131316 C 0.0 **** -0.24
36747 H 82.14318993954467 72.83796215829341 76.58686812762053 H 0.0 **** 0.06
36748 H 82.86553287837498 71.66598322780732 77.71497068962708 H 0.0 **** 0.06
36749 H 81.7451210903491 72.91087483987997 78.31989530987576 H 0.0 **** 0.06
36750 H 83.36971402773213 73.37306563817157 77.75974201815652 H 0.0 **** 0.06
36751 C 69.49426665072968 68.06432167603651 102.48748535831203 C 0.0 **** -0.24
36752 H 69.10810152574152 67.84615714096981 103.48288117368281 H 0.0 **** 0.06
36753 H 69.94517681421394 69.05626841105203 102.48167291575118 H 0.0 **** 0.06
36754 H 68.67799325274103 68.03123072380288 101.76604108097206 H 0.0 **** 0.06
36755 H 70.24640782052208 67.32172661014545 102.21933351374173 H 0.0 **** 0.06
36756 C 46.35082956696007 27.134747067125204 91.24817336418141 C 0.0 **** -0.24
36757 H 46.966233352030855 26.286051195079153 91.54860254364962 H 0.0 **** 0.06
36758 H 46.799297611579505 27.61867882511399 90.38016493573787 H 0.0 **** 0.06
36759 H 46.289501600911876 27.847090039266448 92.07064675274734 H 0.0 **** 0.06
36760 H 45.35013588064652 26.7860295078205 90.9938088298174 H 0.0 **** 0.06
36761 C 113.12373857419749 67.88535351264272 50.22624528402221 C 0.0 **** -0.24
36762 H 112.84338500590198 68.34267200681032 51.17486995917014 H 0.0 **** 0.06
36763 H 112.9460736075425 66.81066778032056 50.2746075345122 H 0.0 **** 0.06
36764 H 114.18071490453804 68.07058006935839 50.03212586343005 H 0.0 **** 0.06
36765 H 112.5253565539301 68.31661333074433 49.424322593304424 H 0.0 **** 0.06
36766 C 5.197631271272172 56.97538078298945 12.95703894711917 C 0.0 **** -0.24
36767 H 5.3972489544825635 56.50806615446061 13.9217886535418 H 0.0 **** 0.06
36768 H 5.94513151209469 56.64881408685912 12.233721078356506 H 0.0 **** 0.06
36769 H 5.242785810912181 58.05882688863244 13.06235594812576 H 0.0 **** 0.06
36770 H 4.2060742691560336 56.68386381061936 12.611113116269259 H 0.0 **** 0.06
36771 C 35.35754819242942 4.6551638853242 25.5775785967854 C 0.0 **** -0.24
36772 H 34.79238496697076 4.324673051285927 24.705352972779934 H 0.0 **** 0.06
36773 H 35.26857472836403 5.736615496983916 25.679976127815962 H 0.0 **** 0.06
36774 H 36.405795251763266 4.385995470035539 25.45310963861826 H 0.0 **** 0.06
36775 H 34.96132333084708 4.171763011938424 26.470482049096887 H 0.0 **** 0.06
36776 C 78.48139867911487 44.36430052632162 90.93022265516584 C 0.0 **** -0.24
36777 H 79.28481900258862 44.95839007086728 90.49320366368846 H 0.0 **** 0.06
36778 H 77.70283988463132 44.202779614210876 90.18358725758227 H 0.0 **** 0.06
36779 H 78.0613343118105 44.894862980804355 91.78493696986266 H 0.0 **** 0.06
36780 H 78.87731245347175 43.403406107465564 91.25681912158191 H 0.0 **** 0.06
36781 C 115.4831773646445 37.96971943399285 16.013344195761505 C 0.0 **** -0.24
36782 H 114.40111299116633 37.855915917149645 15.950538453861768 H 0.0 **** 0.06
36783 H 115.80144143200458 38.78359463884834 15.36147665395275 H 0.0 **** 0.06
36784 H 115.9649757428914 37.043860039814064 15.701402288703818 H 0.0 **** 0.06
36785 H 115.76436013737101 38.1978160803493 17.041958970652857 H 0.0 **** 0.06
36786 C 84.07819988350076 101.94378232707334 67.88305108258658 C 0.0 **** -0.24
36787 H 83.7439198790974 101.50775734810549 66.94189264759277 H 0.0 **** 0.06
36788 H 84.34925096352487 102.98819212077225 67.72415897405529 H 0.0 **** 0.06
36789 H 84.94485363538485 101.39442009437354 68.2495213949679 H 0.0 **** 0.06
36790 H 83.27348586618484 101.88417962126559 68.61659185034335 H 0.0 **** 0.06
36791 C 8.805639758706064 119.3848444852789 45.7370914248515 C 0.0 **** -0.24
36792 H 9.095886513120178 118.55726505243013 45.08979996513851 H 0.0 **** 0.06
36793 H 8.969225179206944 120.32836094795204 45.21660932920358 H 0.0 **** 0.06
36794 H 9.406973452977638 119.36244942128138 46.646767995157774 H 0.0 **** 0.06
36795 H 7.751034075141121 119.29034483162752 45.9968525158973 H 0.0 **** 0.06
36796 C 96.37121111849004 30.818605922909242 43.050740294799134 C 0.0 **** -0.24
36797 H 97.2965179860297 31.24265634463893 42.66133877402509 H 0.0 **** 0.06
36798 H 95.88189675687528 30.236255750180675 42.26928529043659 H 0.0 **** 0.06
36799 H 95.71032072670874 31.62281973066854 43.37297022777895 H 0.0 **** 0.06
36800 H 96.59671235965098 30.171551837898306 43.89821083118201 H 0.0 **** 0.06
36801 C 104.39769824126378 8.815578684430925 43.33829809677443 C 0.0 **** -0.24
36802 H 104.49658641654486 8.00564030578116 42.61467032379696 H 0.0 **** 0.06
36803 H 103.83841232288293 8.46210445165304 44.20424690016425 H 0.0 **** 0.06
36804 H 103.86793541355394 9.649985537133329 42.878736698896276 H 0.0 **** 0.06
36805 H 105.38799543565085 9.143253081778443 43.65374707115311 H 0.0 **** 0.06
36806 C 3.726233079691397 21.99043458171242 119.34476726954004 C 0.0 **** -0.24
36807 H 4.0103071206794425 22.219985984884914 118.31799796910549 H 0.0 **** 0.06
36808 H 2.6528384806121608 22.138082822596743 119.46598274831683 H 0.0 **** 0.06
36809 H 4.263995594712412 22.649932628926663 120.0262193621943 H 0.0 **** 0.06
36810 H 3.978775961594394 20.9536373814106 119.56872670979139 H 0.0 **** 0.06
36811 C 120.4813162416155 95.05534030613006 87.16971463066488 C 0.0 **** -0.24
36812 H 119.58985497035638 94.43414446451482 87.25189501123191 H 0.0 **** 0.06
36813 H 120.66401041941714 95.29158627608791 86.12070228924381 H 0.0 **** 0.06
36814 H 121.33811971988564 94.51672123449384 87.57568935462967 H 0.0 **** 0.06
36815 H 120.33406050785487 95.97913669306132 87.72998970865012 H 0.0 **** 0.06
36816 C 72.02222099091549 69.76032665975907 16.655648653164807 C 0.0 **** -0.24
36817 H 70.9700181924718 69.94414793616878 16.434967383136783 H 0.0 **** 0.06
36818 H 72.49554692840647 69.28745760010639 15.794622759909956 H 0.0 **** 0.06
36819 H 72.10178014936449 69.10287971657434 17.521249583861483 H 0.0 **** 0.06
36820 H 72.5194678493965 70.706178090153 16.870615539788414 H 0.0 **** 0.06
36821 C 52.03026423271692 117.59954739577715 61.02442786876702 C 0.0 **** -0.24
36822 H 51.17605535856464 117.28526991716313 60.42465041088931 H 0.0 **** 0.06
36823 H 52.404109415069854 116.75059076723022 61.59672197702727 H 0.0 **** 0.06
36824 H 51.72300570652126 118.3921346926955 61.70609175773657 H 0.0 **** 0.06
36825 H 52.81766751699209 117.97051351958422 60.36710875274741 H 0.0 **** 0.06
36826 C 97.11864787565167 55.75764921058024 115.7915485833011 C 0.0 **** -0.24
36827 H 96.66701712525295 54.95054052402864 115.21615543791185 H 0.0 **** 0.06
36828 H 98.19411444613755 55.594225588431044 115.86385716031937 H 0.0 **** 0.06
36829 H 96.68600353637922 55.776466110265545 116.79225432232735 H 0.0 **** 0.06
36830 H 96.92735735957118 56.709547173189634 115.29564701527109 H 0.0 **** 0.06
36831 C 120.95353867288756 77.20249873917373 55.97970902722787 C 0.0 **** -0.24
36832 H 121.95616609697083 77.52072617362435 56.264183352229225 H 0.0 **** 0.06
36833 H 120.71183005525606 76.26759461260843 56.48463606100225 H 0.0 **** 0.06
36834 H 120.91305884336657 77.05351281404745 54.900060110609076 H 0.0 **** 0.06
36835 H 120.23370325294385 77.96841895325082 56.267818913172505 H 0.0 **** 0.06
36836 C 56.5584870616172 0.9551814004433368 14.549344450007368 C 0.0 **** -0.24
36837 H 57.29915971720308 0.1571241196881914 14.589340283924344 H 0.0 **** 0.06
36838 H 56.59640949451659 1.532608413607889 15.474133168328876 H 0.0 **** 0.06
36839 H 55.56451740147679 0.5231919269019585 14.43137597490778 H 0.0 **** 0.06
36840 H 56.772840501991794 1.6083198055006847 13.703358065561474 H 0.0 **** 0.06
36841 C 111.63205138274182 15.991666990625568 42.29176485549566 C 0.0 **** -0.24
36842 H 112.50047723361703 15.518562832581658 42.750185108531056 H 0.0 **** 0.06
36843 H 110.73869653972079 15.741905996547398 42.86463546004941 H 0.0 **** 0.06
36844 H 111.52078390634841 15.632304537501643 41.26879012494109 H 0.0 **** 0.06
36845 H 111.76939578592223 17.072801214313408 42.28502576401556 H 0.0 **** 0.06
36846 C 99.9822499983037 18.228496885445765 38.00374908714713 C 0.0 **** -0.24
36847 H 100.72494199559895 18.238781905268098 38.802074206207976 H 0.0 **** 0.06
36848 H 99.34691801299775 19.11027005391891 38.08646832286945 H 0.0 **** 0.06
36849 H 99.3709015032762 17.330529957679346 38.08702863765339 H 0.0 **** 0.06
36850 H 100.48889503507854 18.23410093647375 37.03773685611213 H 0.0 **** 0.06
36851 C 26.828408241419197 30.392749668487397 17.709152317315528 C 0.0 **** -0.24
36852 H 27.219929115994198 29.379021300641057 17.78318768857207 H 0.0 **** 0.06
36853 H 25.7405819364632 30.357620778013086 17.641151708074148 H 0.0 **** 0.06
36854 H 27.23365178091243 30.874090754907797 16.819683091475838 H 0.0 **** 0.06
36855 H 27.11968467554358 30.96030160589538 18.593562869092324 H 0.0 **** 0.06
36856 C 60.56810510080057 29.719701383845234 44.71124604223584 C 0.0 **** -0.24
36857 H 60.162715311064154 29.79576604571224 43.70215911320659 H 0.0 **** 0.06
36858 H 59.955041640088886 29.034477370801866 45.29695108096669 H 0.0 **** 0.06
36859 H 60.5634036531544 30.703387132786872 45.17972370314911 H 0.0 **** 0.06
36860 H 61.5899618949691 29.344110215549904 44.66366386656932 H 0.0 **** 0.06
36861 C 64.12856413039108 32.39858719139289 119.54362472801621 C 0.0 **** -0.24
36862 H 64.05057450660709 32.70886645208736 118.50190283768936 H 0.0 **** 0.06
36863 H 64.47266409564506 33.237228251182586 120.14822829191868 H 0.0 **** 0.06
36864 H 64.83800060376134 31.575922055044515 119.62472350882447 H 0.0 **** 0.06
36865 H 63.15100850032531 32.0717468682615 119.89837045742841 H 0.0 **** 0.06
36866 C 77.1900325466762 64.35824598219955 108.17497935369127 C 0.0 **** -0.24
36867 H 77.05548689622512 64.82060263913118 107.19652343600663 H 0.0 **** 0.06
36868 H 78.14195512517449 63.827305625407945 108.19702239249463 H 0.0 **** 0.06
36869 H 76.37732362473429 63.65603240675199 108.359317094542 H 0.0 **** 0.06
36870 H 77.18585926634267 65.12991497456045 108.94405517306336 H 0.0 **** 0.06
36871 C 58.841596134846554 88.06538582783486 113.84717416780762 C 0.0 **** -0.24
36872 H 58.05903159174483 87.30911808652178 113.9147168462257 H 0.0 **** 0.06
36873 H 59.46457911451358 88.02357569369474 114.74128619382577 H 0.0 **** 0.06
36874 H 58.386550354533085 89.0519121785562 113.76683021138774 H 0.0 **** 0.06
36875 H 59.455002664370454 87.87393564471952 112.9670881771462 H 0.0 **** 0.06
36876 C 116.81915139092666 105.64164884032493 13.53192255467286 C 0.0 **** -0.24
36877 H 117.89707067271486 105.80067688020631 13.55170146113582 H 0.0 **** 0.06
36878 H 116.30963346113327 106.57214359892754 13.781854747505022 H 0.0 **** 0.06
36879 H 116.55268277116389 104.87497718937732 14.259565456057402 H 0.0 **** 0.06
36880 H 116.5171914326965 105.3180646472997 12.535777691860432 H 0.0 **** 0.06
36881 C 97.48345896566036 2.319908807661321 26.382481394140896 C 0.0 **** -0.24
36882 H 97.33943499934557 2.87904953179779 25.457326843224294 H 0.0 **** 0.06
36883 H 96.81792842509455 1.4560600604850436 26.392260718931993 H 0.0 **** 0.06
36884 H 97.25655477446173 2.9626245791257446 27.233308095058163 H 0.0 **** 0.06
36885 H 98.51825403430593 1.983682432824736 26.446786240825077 H 0.0 **** 0.06
36886 C 102.9189144524949 52.83970343798555 40.386946558334586 C 0.0 **** -0.24
36887 H 101.86243597056645 53.09870015199894 40.30906771242894 H 0.0 **** 0.06
36888 H 103.50895933567759 53.75092623697233 40.49073595833521 H 0.0 **** 0.06
36889 H 103.22920642183226 52.30518530749538 39.489357918577724 H 0.0 **** 0.06
36890 H 103.07307979650298 52.205535210383445 41.25994531706232 H 0.0 **** 0.06
36891 C 6.84892376030956 27.914359589269623 1.2739908834541183 C 0.0 **** -0.24
36892 H 6.409494249321256 27.226116726440182 1.9966655320156832 H 0.0 **** 0.06
36893 H 7.56966796838185 27.37983457604895 0.6548439301303688 H 0.0 **** 0.06
36894 H 7.352902741999884 28.723470036995025 1.8031096105735287 H 0.0 **** 0.06
36895 H 6.061975761812306 28.32834732429876 0.6424188662277857 H 0.0 **** 0.06
36896 C 100.65093816995841 91.50943730975538 110.76842297735274 C 0.0 **** -0.24
36897 H 101.01204260668521 91.49060218430083 109.73999749630218 H 0.0 **** 0.06
36898 H 101.47901040797399 91.3099005938137 111.44801223228694 H 0.0 **** 0.06
36899 H 99.88257658904456 90.74660509955066 110.89645290178422 H 0.0 **** 0.06
36900 H 100.2294517583203 92.4904890578002 110.98687843450824 H 0.0 **** 0.06
36901 C 89.08550829684785 106.13807542992942 117.75343545051993 C 0.0 **** -0.24
36902 H 88.18414796701094 105.76999625108101 117.26233723314705 H 0.0 **** 0.06
36903 H 89.55370296175914 105.3261396388354 118.30945175248516 H 0.0 **** 0.06
36904 H 88.82161275331646 106.94325204485779 118.43859006823968 H 0.0 **** 0.06
36905 H 89.77999716575542 106.51367836407735 117.00246891752425 H 0.0 **** 0.06
36906 C 80.71320385918239 32.38647573258456 50.41549297311434 C 0.0 **** -0.24
36907 H 79.76240522867417 32.42198655073284 49.884856557425564 H 0.0 **** 0.06
36908 H 81.40125573705532 31.729320900849387 49.88327375781694 H 0.0 **** 0.06
36909 H 80.55236650405732 32.005968420484976 51.42386672558479 H 0.0 **** 0.06
36910 H 81.13684165691294 33.38926863614782 50.46783340970262 H 0.0 **** 0.06
36911 C 87.38902544435359 75.52361639106206 20.66451793401336 C 0.0 **** -0.24
36912 H 87.16586270271924 74.62886817434284 21.246401252651197 H 0.0 **** 0.06
36913 H 88.07582688196334 76.15883704774717 21.223535473502693 H 0.0 **** 0.06
36914 H 86.46528575435883 76.0690484603519 20.46999800866672 H 0.0 **** 0.06
36915 H 87.84663270629244 75.23608389580897 19.718499579314027 H 0.0 **** 0.06
36916 C 26.95628533313966 67.97829145290692 17.224117815788702 C 0.0 **** -0.24
36917 H 26.307151286262382 67.7139736243364 18.058652524886213 H 0.0 **** 0.06
36918 H 26.396782889356807 67.90088723050434 16.290804447986403 H 0.0 **** 0.06
36919 H 27.807309743498095 67.29758518651502 17.195056153205513 H 0.0 **** 0.06
36920 H 27.312651116348192 69.00039506157557 17.34987447640495 H 0.0 **** 0.06
36921 C 115.64386333173957 26.73168064244811 41.85287296361222 C 0.0 **** -0.24
36922 H 114.99894734222897 25.952174324006734 41.44684166910398 H 0.0 **** 0.06
36923 H 115.0753404822004 27.342986936133002 42.55503150430263 H 0.0 **** 0.06
36924 H 116.01273912155509 27.35779715537339 41.04062369248269 H 0.0 **** 0.06
36925 H 116.4866079526017 26.27288097737201 42.36995081025771 H 0.0 **** 0.06
36926 C 37.241187013860454 76.26204541168684 87.34463207598876 C 0.0 **** -0.24
36927 H 37.10667402529987 75.20274569956806 87.56566274912012 H 0.0 **** 0.06
36928 H 38.28184874542305 76.44792507477078 87.07603920993398 H 0.0 **** 0.06
36929 H 36.981237194734064 76.8522046943296 88.22345984478386 H 0.0 **** 0.06
36930 H 36.59445138648978 76.54447649883895 86.51352024464583 H 0.0 **** 0.06
36931 C 105.15674020996403 55.498598474275205 28.544504425378108 C 0.0 **** -0.24
36932 H 104.80081181585413 54.55703273532665 28.963356545003506 H 0.0 **** 0.06
36933 H 105.6730478090831 55.30525217607981 27.603764903403004 H 0.0 **** 0.06
36934 H 105.84437510055616 55.97155502106498 29.245972541681596 H 0.0 **** 0.06
36935 H 104.3094526335691 56.15934060734066 28.364916983992558 H 0.0 **** 0.06
36936 C 40.565298252906196 99.32517901364128 37.67171660108764 C 0.0 **** -0.24
36937 H 41.31906991437511 98.84361424934377 37.04849688843234 H 0.0 **** 0.06
36938 H 41.04226656975665 99.76162105036576 38.548672496697925 H 0.0 **** 0.06
36939 H 39.8300739674555 98.58509628017777 37.98862977644502 H 0.0 **** 0.06
36940 H 40.06783785671194 100.10849384823513 37.0984895616651 H 0.0 **** 0.06
36941 C 32.02708163814174 63.57921166854277 33.781166651444096 C 0.0 **** -0.24
36942 H 32.7461709610952 64.39016681918679 33.89351600418536 H 0.0 **** 0.06
36943 H 32.54381636117466 62.67880792688507 33.4470176888413 H 0.0 **** 0.06
36944 H 31.274488795595644 63.86043829888396 33.044075230367696 H 0.0 **** 0.06
36945 H 31.543642324978947 63.387256938870735 34.73909563948911 H 0.0 **** 0.06
36946 C 63.02691219857093 34.32822064159757 49.978476400953895 C 0.0 **** -0.24
36947 H 63.17366257004846 33.52748574981342 49.25375501914747 H 0.0 **** 0.06
36948 H 62.3993681554031 33.96844545242254 50.79414878760678 H 0.0 **** 0.06
36949 H 62.53942304860717 35.17350911520492 49.491335836055065 H 0.0 **** 0.06
36950 H 63.99241164323289 34.643192803914246 50.373185708892876 H 0.0 **** 0.06
36951 C 16.34235751151911 62.48686048345085 97.06664589772322 C 0.0 **** -0.24
36952 H 15.928247472834585 61.691024779044845 96.44916842749919 H 0.0 **** 0.06
36953 H 17.034678320090393 62.060703161439385 97.79325583938717 H 0.0 **** 0.06
36954 H 15.534514635605404 62.99789472105385 97.59136399366633 H 0.0 **** 0.06
36955 H 16.87228632675425 63.200039783827684 96.43479077340174 H 0.0 **** 0.06
36956 C 96.52878558305699 74.01555502269088 118.01283031513077 C 0.0 **** -0.24
36957 H 96.02355840039903 73.72056009958251 118.93229135026829 H 0.0 **** 0.06
36958 H 95.8678568096822 73.84279502468087 117.1634603905888 H 0.0 **** 0.06
36959 H 97.43739019839484 73.42630439271105 117.8924541098745 H 0.0 **** 0.06
36960 H 96.78641580121507 75.07388632124179 118.06360149966343 H 0.0 **** 0.06
36961 C 105.06988252504141 87.29609844601765 44.646709338667414 C 0.0 **** -0.24
36962 H 104.40300729807149 87.75980019830268 45.373117768700006 H 0.0 **** 0.06
36963 H 105.0416138468299 87.86268001709854 43.71485127569614 H 0.0 **** 0.06
36964 H 104.74693082383558 86.27248027658393 44.45906838788264 H 0.0 **** 0.06
36965 H 106.08632079341459 87.29074901441206 45.03856605066236 H 0.0 **** 0.06
36966 C 49.201157555235454 109.59649410824795 84.92282427266508 C 0.0 **** -0.24
36967 H 48.29238185849408 110.11135024922359 85.23297578868733 H 0.0 **** 0.06
36968 H 49.912271580688184 110.32081024876618 84.52550059478835 H 0.0 **** 0.06
36969 H 48.95882176058569 108.86422469172462 84.15232182481844 H 0.0 **** 0.06
36970 H 49.64063562841568 109.08758451449441 85.7813376606847 H 0.0 **** 0.06
36971 C 59.12917908984241 100.63441526340003 106.48453645260022 C 0.0 **** -0.24
36972 H 59.10905031622076 101.07950144517005 105.49009579858563 H 0.0 **** 0.06
36973 H 58.15516054124248 100.19601062662028 106.70598051617145 H 0.0 **** 0.06
36974 H 59.35747474619711 101.40343464730202 107.22181886356978 H 0.0 **** 0.06
36975 H 59.89337415549346 99.85822319280516 106.52012970838126 H 0.0 **** 0.06
36976 C 100.36810756215814 94.60306217621473 11.746070361169245 C 0.0 **** -0.24
36977 H 99.56212816034363 95.1756854525322 11.286815602024888 H 0.0 **** 0.06
36978 H 100.5982366958595 95.02131231623957 12.726235428852107 H 0.0 **** 0.06
36979 H 101.25372214277064 94.65123901585218 11.11274665618592 H 0.0 **** 0.06
36980 H 100.0561965621911 93.56434364091706 11.857351490737273 H 0.0 **** 0.06
36981 C 102.21085316819665 69.16207524005674 53.4342088325396 C 0.0 **** -0.24
36982 H 102.14322657946175 68.10223827661801 53.187337566737206 H 0.0 **** 0.06
36983 H 102.93012461277277 69.30102291441091 54.24151316077606 H 0.0 **** 0.06
36984 H 101.2330213412285 69.52391787228521 53.75051233052465 H 0.0 **** 0.06
36985 H 102.5372625018135 69.71894817991813 52.55567617784425 H 0.0 **** 0.06
36986 C 79.52173579166896 18.38436543815644 11.560767795370424 C 0.0 **** -0.24
36987 H 79.1614206374895 19.409259639830463 11.476530326082013 H 0.0 **** 0.06
36988 H 79.41130511691946 18.043205088867893 12.59056673943141 H 0.0 **** 0.06
36989 H 80.57347943411597 18.34534739293991 11.276113503385886 H 0.0 **** 0.06
36990 H 78.94245705448884 17.739810370306714 10.899722386669652 H 0.0 **** 0.06
36991 C 20.50554871490354 98.17750473426119 86.17186400290421 C 0.0 **** -0.24
36992 H 21.13686261998842 97.45668700557286 85.65257538630814 H 0.0 **** 0.06
36993 H 19.52870212092499 97.733563867584 86.36145915291283 H 0.0 **** 0.06
36994 H 20.386918205532595 99.06785344896636 85.5546346461245 H 0.0 **** 0.06
36995 H 20.97068432944512 98.4505046947969 87.1190450874071 H 0.0 **** 0.06
36996 C 111.44802869455646 92.03103826075198 110.87163287847139 C 0.0 **** -0.24
36997 H 112.28358546944659 92.18859796752767 110.18923638517518 H 0.0 **** 0.06
36998 H 111.82025657459934 91.98188427562789 111.89559308081317 H 0.0 **** 0.06
36999 H 110.94571955410302 91.09765679517369 110.62138382847445 H 0.0 **** 0.06
37000 H 110.74498247193867 92.85932979896018 110.78064224966158 H 0.0 **** 0.06
37001 C 88.70537587136747 23.163307156921377 91.40399498903133 C 0.0 **** -0.24
37002 H 88.74462283923853 22.698100213251195 90.4183909230263 H 0.0 **** 0.06
37003 H 88.6034862644255 24.24337057554257 91.2914661874592 H 0.0 **** 0.06
37004 H 89.622548605238 22.938994145470076 91.94756643461815 H 0.0 **** 0.06
37005 H 87.85007283592117 22.773076732866087 91.95625317350931 H 0.0 **** 0.06
37006 C 25.353425090682094 12.17108714438557 116.76694528674605 C 0.0 **** -0.24
37007 H 25.314928792877623 11.501388477981813 117.62579907691008 H 0.0 **** 0.06
37008 H 24.925961313482134 11.671075676743815 115.89710711199277 H 0.0 **** 0.06
37009 H 26.39023487090138 12.43714667833282 116.55943149604738 H 0.0 **** 0.06
37010 H 24.78298571065676 13.074206779572304 116.98470200052827 H 0.0 **** 0.06
37011 C 24.48417675534381 50.68763301376871 76.94987956475714 C 0.0 **** -0.24
37012 H 24.175229812285096 51.38869179300787 77.72553898104846 H 0.0 **** 0.06
37013 H 23.947190921454364 50.90721594622716 76.02745577819948 H 0.0 **** 0.06
37014 H 24.2561997959954 49.67052156375418 77.26998420529691 H 0.0 **** 0.06
37015 H 25.555847052522324 50.78347122431705 76.7784331229019 H 0.0 **** 0.06
37016 C 120.24215929759939 51.08576751075236 115.020376908244 C 0.0 **** -0.24
37017 H 120.96271920429783 50.526269782871935 115.61710955807362 H 0.0 **** 0.06
37018 H 119.67655514931108 51.755569865537296 115.66893295162288 H 0.0 **** 0.06
37019 H 119.55903212084087 50.391589966926034 114.53069237698992 H 0.0 **** 0.06
37020 H 120.76965399116659 51.66962271705839 114.26690394506443 H 0.0 **** 0.06
37021 C 33.22748581130648 19.54395728382407 28.443078676223315 C 0.0 **** -0.24
37022 H 34.29934723296688 19.556367441787714 28.247760579073656 H 0.0 **** 0.06
37023 H 33.03495795232374 19.02752948806949 29.383667058529845 H 0.0 **** 0.06
37024 H 32.71659954140958 19.023843034723882 27.631418254954895 H 0.0 **** 0.06
37025 H 32.85848960861594 20.56753341417361 28.50737355318858 H 0.0 **** 0.06
37026 C 92.93454606562943 4.991939429441025 75.58170857500255 C 0.0 **** -0.24
37027 H 92.69200167213933 3.930449731407295 75.62740259590731 H 0.0 **** 0.06
37028 H 92.9835634799208 5.397459128201692 76.59308451239468 H 0.0 **** 0.06
37029 H 92.16317983297989 5.516448730498485 75.01668173672675 H 0.0 **** 0.06
37030 H 93.89845983975823 5.124240617993284 75.08908719113771 H 0.0 **** 0.06
37031 C 0.9661176540531642 74.18785566697781 120.57883335673003 C 0.0 **** -0.24
37032 H 0.8732893327232745 75.0125454658442 119.87213556397049 H 0.0 **** 0.06
37033 H 1.9853691655232382 74.1510118729108 120.96207344434751 H 0.0 **** 0.06
37034 H 0.7336189524203007 73.24955926855017 120.07421032208785 H 0.0 **** 0.06
37035 H 0.2719304093446624 74.33803397231975 121.40555136452721 H 0.0 **** 0.06
37036 C 115.44728938246305 79.48183424772932 75.06242152777673 C 0.0 **** -0.24
37037 H 114.46667178774895 79.95424194716747 75.0131449837616 H 0.0 **** 0.06
37038 H 116.0197713607139 79.73998259087892 74.170625567804 H 0.0 **** 0.06
37039 H 115.32732251118628 78.3998517477049 75.11712935916614 H 0.0 **** 0.06
37040 H 115.9759854950306 79.83439673464201 75.94818857347002 H 0.0 **** 0.06
37041 C 74.6471128279951 25.960461971699075 36.6509961957315 C 0.0 **** -0.24
37042 H 73.63288624545291 25.797563079782485 36.287308852474155 H 0.0 **** 0.06
37043 H 75.10316859923947 26.784152025638974 36.1001658626456 H 0.0 **** 0.06
37044 H 75.23585599427727 25.0544674350484 36.504041900012396 H 0.0 **** 0.06
37045 H 74.6167944963675 26.205095451649505 37.71324967137924 H 0.0 **** 0.06
37046 C 114.01705635509444 1.7981127171168794 98.77378147264636 C 0.0 **** -0.24
37047 H 115.0323438551888 1.6048031016429434 99.11954554411034 H 0.0 **** 0.06
37048 H 113.92681761067075 1.500395061283399 97.7286195936041 H 0.0 **** 0.06
37049 H 113.79626784981424 2.860515910772449 98.87010874093005 H 0.0 **** 0.06
37050 H 113.31247670171211 1.2243160469879228 99.37665631859761 H 0.0 **** 0.06
37051 C 50.83819484451368 111.06593054852178 64.84353324472414 C 0.0 **** -0.24
37052 H 50.60019823946209 110.04007891812182 65.12740339224388 H 0.0 **** 0.06
37053 H 50.409950134431824 111.27981324182254 63.864963004512134 H 0.0 **** 0.06
37054 H 51.92110110271551 111.18853152130475 64.80203335383058 H 0.0 **** 0.06
37055 H 50.42291731913673 111.75216866525786 65.58124316392147 H 0.0 **** 0.06
37056 C 18.379433055475413 19.49313525912362 47.43583234917341 C 0.0 **** -0.24
37057 H 18.811603769170286 19.97124171626595 48.31576581516768 H 0.0 **** 0.06
37058 H 19.100084084379183 18.793573818582047 47.01168609655778 H 0.0 **** 0.06
37059 H 18.131902860431218 20.25354587662528 46.695515123555964 H 0.0 **** 0.06
37060 H 17.475714651448484 18.95642163797615 47.72158673811683 H 0.0 **** 0.06
37061 C 99.4616771568308 112.10402766620817 83.91451052053185 C 0.0 **** -0.24
37062 H 99.40189514425305 111.11998825049272 83.44875338499153 H 0.0 **** 0.06
37063 H 100.37902978907468 112.60005434094802 83.59825779423628 H 0.0 **** 0.06
37064 H 99.46291666650066 111.99242862205912 84.99916543904988 H 0.0 **** 0.06
37065 H 98.60202150484338 112.70217424666438 83.61223753066255 H 0.0 **** 0.06
37066 C 94.45359434027174 55.72378584796195 9.963172009932716 C 0.0 **** -0.24
37067 H 95.52509873991099 55.860877407998146 9.815417515157634 H 0.0 **** 0.06
37068 H 94.07911098875906 56.49454508412214 10.637764197602614 H 0.0 **** 0.06
37069 H 94.26952903292135 54.74104680228487 10.397033794543976 H 0.0 **** 0.06
37070 H 93.94122546853305 55.8003977879132 9.004111071370318 H 0.0 **** 0.06
37071 C 60.622926453893164 11.157364284319243 35.631271118750306 C 0.0 **** -0.24
37072 H 61.627854829577025 11.133171894200686 35.208265339405216 H 0.0 **** 0.06
37073 H 59.991852680604815 10.439406323577273 35.10780825690841 H 0.0 **** 0.06
37074 H 60.206602549095656 12.15786317819095 35.520161177724844 H 0.0 **** 0.06
37075 H 60.66858547438188 10.898120596239949 36.68900789743179 H 0.0 **** 0.06
37076 C 52.13244071559528 97.77859072084925 15.432670882925265 C 0.0 **** -0.24
37077 H 51.614858031257455 97.13150827448948 14.722935914319294 H 0.0 **** 0.06
37078 H 52.04964278752078 98.81546233013401 15.105736731495483 H 0.0 **** 0.06
37079 H 53.18318290082954 97.49433333008221 15.483006612918814 H 0.0 **** 0.06
37080 H 51.678903353806966 97.67115138486346 16.418478588692892 H 0.0 **** 0.06
37081 C 63.44890448629831 74.52800475369267 26.964423953943175 C 0.0 **** -0.24
37082 H 63.27120093787409 75.60213423147866 27.018640670885304 H 0.0 **** 0.06
37083 H 64.10467142888362 74.22701660190697 27.781853472794168 H 0.0 **** 0.06
37084 H 63.919711765043154 74.28539977773977 26.01226829114379 H 0.0 **** 0.06
37085 H 62.499806956415064 73.99838529562402 27.04696023154176 H 0.0 **** 0.06
37086 C 24.128015089852198 105.66497196828044 44.75045855726037 C 0.0 **** -0.24
37087 H 24.009433878493667 106.26674940761106 43.85000062997324 H 0.0 **** 0.06
37088 H 23.228931956821498 105.06921038002699 44.9099979386057 H 0.0 **** 0.06
37089 H 24.28692634153714 106.31966283741002 45.607156399257775 H 0.0 **** 0.06
37090 H 24.986768182556546 105.00426524807352 44.63467926120481 H 0.0 **** 0.06
37091 C 81.94740446658676 79.75079742309936 79.43426890603749 C 0.0 **** -0.24
37092 H 82.4501604334908 80.65999674213009 79.7632767176897 H 0.0 **** 0.06
37093 H 82.19324787961398 78.93361406991909 80.11366393652682 H 0.0 **** 0.06
37094 H 82.27849434930579 79.4975483302635 78.42641891997522 H 0.0 **** 0.06
37095 H 80.86933021207835 79.91024031426491 79.43328345501237 H 0.0 **** 0.06
37096 C 37.835603385625035 108.05969251370982 40.87136204910348 C 0.0 **** -0.24
37097 H 37.2466540608369 108.40357794587544 40.02079538023034 H 0.0 **** 0.06
37098 H 37.65421887523328 106.99702618785341 41.03313992517769 H 0.0 **** 0.06
37099 H 37.54725209778586 108.61826455519929 41.76252926495803 H 0.0 **** 0.06
37100 H 38.89466589878236 108.22199570450283 40.66829689403278 H 0.0 **** 0.06
37101 C 115.52967880350927 21.343075649538434 13.619667573399653 C 0.0 **** -0.24
37102 H 116.16566782549626 21.57379510115237 12.765724622999898 H 0.0 **** 0.06
37103 H 115.03302433664088 22.252464145097264 13.959255680186345 H 0.0 **** 0.06
37104 H 116.13881643518408 20.937423778299916 14.426915978061572 H 0.0 **** 0.06
37105 H 114.7793185404819 20.608654756904514 13.325576427872392 H 0.0 **** 0.06
37106 C 52.26871779410854 66.20683572756667 25.41920450816928 C 0.0 **** -0.24
37107 H 52.54247834552794 67.00677217887124 24.73183639731038 H 0.0 **** 0.06
37108 H 51.22308652017361 65.94073024546603 25.26859517836757 H 0.0 **** 0.06
37109 H 52.41367014241169 66.54499184005823 26.445888229617417 H 0.0 **** 0.06
37110 H 52.89737598007068 65.33610624769594 25.231124143540818 H 0.0 **** 0.06
37111 C 96.3138053033974 8.181513411687149 98.79858977187561 C 0.0 **** -0.24
37112 H 97.01075814915055 8.993079368690474 99.0080475620154 H 0.0 **** 0.06
37113 H 96.54359098420389 7.749155278451468 97.82418524823709 H 0.0 **** 0.06
37114 H 95.29527076013471 8.568819821615321 98.79443994749516 H 0.0 **** 0.06
37115 H 96.40859197028178 7.414844669727302 99.56750566528805 H 0.0 **** 0.06
37116 C 20.05454746676952 108.28712833065643 100.16112768277421 C 0.0 **** -0.24
37117 H 19.274146482503454 108.26349771402647 100.92170313887624 H 0.0 **** 0.06
37118 H 21.02682186613208 108.1402105171565 100.63360296327733 H 0.0 **** 0.06
37119 H 20.03878890937625 109.25097917530496 99.6538385516246 H 0.0 **** 0.06
37120 H 19.8793074419047 107.49280839718276 99.43581265766602 H 0.0 **** 0.06
37121 C 24.271391475385222 16.62023995717618 96.15307769288111 C 0.0 **** -0.24
37122 H 23.238827888925705 16.817413687468218 95.86526511859671 H 0.0 **** 0.06
37123 H 24.335887459839306 16.53532528067194 97.23791865036995 H 0.0 **** 0.06
37124 H 24.904930587255457 17.44092539032073 95.81446903473821 H 0.0 **** 0.06
37125 H 24.6050820941618 15.689986582798156 95.69442062817475 H 0.0 **** 0.06
37126 C 34.79219278953231 104.33384919134747 66.25121311008604 C 0.0 **** -0.24
37127 H 34.744120383651406 105.38262828725544 66.54514611454186 H 0.0 **** 0.06
37128 H 33.919150456897796 104.08676367081881 65.64676212891999 H 0.0 **** 0.06
37129 H 34.80622016025322 103.70655268579566 67.14304465778883 H 0.0 **** 0.06
37130 H 35.69733831399543 104.16051846896735 65.67020355539324 H 0.0 **** 0.06
37131 C 90.26575695381229 71.91040249284492 30.12184700876847 C 0.0 **** -0.24
37132 H 89.79972767490304 72.8944303048221 30.07303007486945 H 0.0 **** 0.06
37133 H 91.26366110037122 72.00192269084218 30.550630746234418 H 0.0 **** 0.06
37134 H 90.3378475494751 71.49319937531712 29.11744537968238 H 0.0 **** 0.06
37135 H 89.66048700289795 71.2527011130002 30.74534142447517 H 0.0 **** 0.06
37136 C 90.46875107512676 55.64747588252138 74.6739647415643 C 0.0 **** -0.24
37137 H 90.49142854400216 54.65455450049765 74.22425703560589 H 0.0 **** 0.06
37138 H 90.2859556262261 55.55705126022002 75.74460068656651 H 0.0 **** 0.06
37139 H 89.67234196767123 56.235039958469 74.21623974779777 H 0.0 **** 0.06
37140 H 91.42614011950883 56.14153390713031 74.50846243407352 H 0.0 **** 0.06
37141 C 96.40666895088546 15.498931196095512 1.711363919877721 C 0.0 **** -0.24
37142 H 96.11292568001767 15.932131999654544 2.6671343144542696 H 0.0 **** 0.06
37143 H 97.47079724228942 15.26163374921093 1.7324610079817049 H 0.0 **** 0.06
37144 H 96.2085563428991 16.214068310879597 0.9125013081539457 H 0.0 **** 0.06
37145 H 95.83530960173005 14.588254989000447 1.5335425765044999 H 0.0 **** 0.06
37146 C 86.12013666548773 33.76409163963706 58.28631985923181 C 0.0 **** -0.24
37147 H 85.77855146263221 34.78718308204023 58.12715135170873 H 0.0 **** 0.06
37148 H 85.78382685805667 33.41752083164195 59.26406245238698 H 0.0 **** 0.06
37149 H 87.20837443636063 33.732903927490696 58.24397661982934 H 0.0 **** 0.06
37150 H 85.70748307564168 33.118496891550194 57.51085833045599 H 0.0 **** 0.06
37151 C 51.079350963584716 65.059554170951 79.95649198899412 C 0.0 **** -0.24
37152 H 51.65454854184378 64.145341707071 79.80452312169058 H 0.0 **** 0.06
37153 H 51.581720596759254 65.89043364753576 79.46252528941804 H 0.0 **** 0.06
37154 H 50.99997922778482 65.2654433038183 81.0243173344171 H 0.0 **** 0.06
37155 H 50.08165802847151 64.9342804136682 79.53576948958582 H 0.0 **** 0.06
37156 C 12.171354470561013 15.95953165979023 7.394445318057166 C 0.0 **** -0.24
37157 H 11.806436130188132 16.74454663297675 6.730836005396412 H 0.0 **** 0.06
37158 H 12.330951748343395 16.371417209018176 8.390807761568198 H 0.0 **** 0.06
37159 H 13.111627419178319 15.566650288750367 7.007496813943533 H 0.0 **** 0.06
37160 H 11.435036550509949 15.1565805692737 7.4458133587727104 H 0.0 **** 0.06
37161 C 95.86634919746263 98.69442793488841 94.75213874797848 C 0.0 **** -0.24
37162 H 95.2264947676857 99.5715503396379 94.65362100856152 H 0.0 **** 0.06
37163 H 95.59237408158299 98.14526786164555 95.65362698791051 H 0.0 **** 0.06
37164 H 96.90724862514605 99.00960390563469 94.82104874453279 H 0.0 **** 0.06
37165 H 95.73756931260658 98.05168330735879 93.88196741576675 H 0.0 **** 0.06
37166 C 71.80722023713002 64.7542262193763 95.18564844217411 C 0.0 **** -0.24
37167 H 72.0259031122481 65.07859027277735 96.20271916476469 H 0.0 **** 0.06
37168 H 72.70305598241077 64.31826965197624 94.74290998046556 H 0.0 **** 0.06
37169 H 71.48840558767387 65.61129517634362 94.59138484631103 H 0.0 **** 0.06
37170 H 71.01133370683556 64.01012598877978 95.2053099199409 H 0.0 **** 0.06
37171 C 69.13207439442527 11.660416782510254 101.45834333859207 C 0.0 **** -0.24
37172 H 69.41157674132856 10.63554375331691 101.70214209023749 H 0.0 **** 0.06
37173 H 68.23210731359467 11.93222618115334 102.01005253646028 H 0.0 **** 0.06
37174 H 68.94104377955935 11.73889365579953 100.38791686573339 H 0.0 **** 0.06
37175 H 69.94421460867406 12.332683195990512 101.73281410390172 H 0.0 **** 0.06
37176 C 10.819303242036199 24.52324743110745 2.7944338845834977 C 0.0 **** -0.24
37177 H 11.481861887247021 24.1085924779481 2.0344144995482196 H 0.0 **** 0.06
37178 H 11.205369443498682 24.280838410916395 3.7848226548348407 H 0.0 **** 0.06
37179 H 9.823043058998167 24.096101066706133 2.678262539410582 H 0.0 **** 0.06
37180 H 10.767086679607814 25.605997466675916 2.678274743435935 H 0.0 **** 0.06
37181 C 68.00965288769825 88.08730183634682 65.4376194370542 C 0.0 **** -0.24
37182 H 68.40520992729884 88.81226772673247 66.14826643613506 H 0.0 **** 0.06
37183 H 68.61567972018867 88.09953935978979 64.531792830353 H 0.0 **** 0.06
37184 H 66.98006419695497 88.3460526312538 65.19041449402994 H 0.0 **** 0.06
37185 H 68.03772684652847 87.09231904865601 65.88023118024282 H 0.0 **** 0.06
37186 C 109.11600183988077 76.48603930394475 115.1084155667048 C 0.0 **** -0.24
37187 H 109.5853116321554 75.8447545240733 115.85500469273983 H 0.0 **** 0.06
37188 H 108.79296239352436 77.41519602843317 115.57919204675653 H 0.0 **** 0.06
37189 H 108.25175865585297 75.97471632467347 114.68228441086481 H 0.0 **** 0.06
37190 H 109.83239394172185 76.70809513008021 114.31792606232895 H 0.0 **** 0.06
37191 C 28.796009825072517 111.46323320948011 78.35876964804388 C 0.0 **** -0.24
37192 H 28.30156320480245 111.4737426027258 77.38707872048536 H 0.0 **** 0.06
37193 H 28.496281452999398 110.5714438570811 78.90860757558914 H 0.0 **** 0.06
37194 H 28.510465888379827 112.35180285810539 78.92235797601947 H 0.0 **** 0.06
37195 H 29.876980652896776 111.45610732736601 78.21518873213026 H 0.0 **** 0.06
37196 C 107.77871460981413 29.760400799613066 94.74073229508741 C 0.0 **** -0.24
37197 H 107.83813315687192 30.764912283859957 94.32390721903133 H 0.0 **** 0.06
37198 H 108.50178060538448 29.116267598400924 94.23985392403944 H 0.0 **** 0.06
37199 H 106.77417608601712 29.36347338965635 94.59265751375702 H 0.0 **** 0.06
37200 H 108.00176167743206 29.796533200252966 95.80786709475066 H 0.0 **** 0.06
37201 C 109.49074420120002 20.87522330361952 8.852115680865978 C 0.0 **** -0.24
37202 H 110.55900519859861 20.93811897675073 9.058316262864963 H 0.0 **** 0.06
37203 H 109.31553861472577 20.15132121891395 8.056892537233239 H 0.0 **** 0.06
37204 H 109.12400923185541 21.853508833261287 8.540713952457423 H 0.0 **** 0.06
37205 H 108.96493159763645 20.560302001023786 9.752967920353115 H 0.0 **** 0.06
37206 C 92.21181489977513 25.063620439211746 111.51964261070384 C 0.0 **** -0.24
37207 H 92.14194642767904 25.449717452395703 112.53646196999506 H 0.0 **** 0.06
37208 H 91.28764216712077 25.279891326573704 110.98434385837069 H 0.0 **** 0.06
37209 H 92.37195933654368 23.98564531163845 111.5499665337006 H 0.0 **** 0.06
37210 H 93.04870015661731 25.540654593825437 111.00798090384285 H 0.0 **** 0.06
37211 C 69.52434228639655 36.06017147694351 53.66938002064995 C 0.0 **** -0.24
37212 H 69.15631023027439 36.31063159263334 54.66491320939787 H 0.0 **** 0.06
37213 H 70.61435247472369 36.05421933340344 53.67669415088966 H 0.0 **** 0.06
37214 H 69.1681916049028 36.801332023739775 52.95449274541869 H 0.0 **** 0.06
37215 H 69.1566907824965 35.073850191853694 53.38446093890229 H 0.0 **** 0.06
37216 C 94.5637625597661 112.75822745243 92.70556604468857 C 0.0 **** -0.24
37217 H 93.61788504782845 113.16069274069474 92.34272094642282 H 0.0 **** 0.06
37218 H 95.37666402212196 113.11646471464299 92.07286036184723 H 0.0 **** 0.06
37219 H 94.53132701772168 111.66902284760125 92.67415887350447 H 0.0 **** 0.06
37220 H 94.72886985747914 113.08717690549479 93.73168298849708 H 0.0 **** 0.06
37221 C 28.07040985405243 115.08486020948864 33.76844477270623 C 0.0 **** -0.24
37222 H 28.411183541030653 114.39694496509972 32.995340005505 H 0.0 **** 0.06
37223 H 27.025619699616243 115.3420182515456 33.591468910659415 H 0.0 **** 0.06
37224 H 28.676503869115635 115.99007482504189 33.742221928448316 H 0.0 **** 0.06
37225 H 28.167435535698672 114.61006154142997 34.744466460791756 H 0.0 **** 0.06
37226 C 55.58306391940445 104.65994518152911 60.855273766570555 C 0.0 **** -0.24
37227 H 56.545168226106114 105.03073080651325 61.20881082708737 H 0.0 **** 0.06
37228 H 55.234233007814225 105.28321787620473 60.03217520215349 H 0.0 **** 0.06
37229 H 54.859258206826325 104.69424329703986 61.67053577908211 H 0.0 **** 0.06
37230 H 55.69496444949101 103.63237639214572 60.51192018225368 H 0.0 **** 0.06
37231 C 106.49717999710057 114.3077325763847 117.00251863507754 C 0.0 **** -0.24
37232 H 107.39001728179804 113.71628964708594 117.20626601385376 H 0.0 **** 0.06
37233 H 106.78175648806044 115.23527137457728 116.5045967627149 H 0.0 **** 0.06
37234 H 105.9938094447235 114.53949193278368 117.94181139408663 H 0.0 **** 0.06
37235 H 105.82482515683395 113.7405049424022 116.35979953469874 H 0.0 **** 0.06
37236 C 22.87062694158027 69.87947186408644 0.3332690423078475 C 0.0 **** -0.24
37237 H 23.597729365190105 70.66726621065973 0.13415774427684823 H 0.0 **** 0.06
37238 H 22.006528414979698 70.01017614396096 -0.3179899267214239 H 0.0 **** 0.06
37239 H 22.55381135411602 69.93251697545327 1.3748688836972747 H 0.0 **** 0.06
37240 H 23.327377642912836 68.9085076655875 0.14187560765778073 H 0.0 **** 0.06
37241 C 83.91513771813189 67.57865303418163 27.00483092559506 C 0.0 **** -0.24
37242 H 83.78281708345173 66.89254608960078 27.84212759164062 H 0.0 **** 0.06
37243 H 84.96700234858645 67.60511805697658 26.719884364512012 H 0.0 **** 0.06
37244 H 83.5926909271843 68.57714652824683 27.29991385409633 H 0.0 **** 0.06
37245 H 83.31714590597434 67.23877844383699 26.15917367085433 H 0.0 **** 0.06
37246 C 82.84602255431952 60.9850965873313 114.55675603933449 C 0.0 **** -0.24
37247 H 81.9949331365695 61.665865585749486 114.56209342056087 H 0.0 **** 0.06
37248 H 83.38106695072656 61.06411098245255 115.50310076898552 H 0.0 **** 0.06
37249 H 83.51587245030163 61.24815486547527 113.73710875036312 H 0.0 **** 0.06
37250 H 82.49234021417686 59.96312543685363 114.42185282430822 H 0.0 **** 0.06
37251 C 79.04020037164963 19.42346509723901 55.0964814352742 C 0.0 **** -0.24
37252 H 79.9702853423014 18.87553719681216 55.248797270342834 H 0.0 **** 0.06
37253 H 78.39746976348931 18.865243469820665 54.414680004749556 H 0.0 **** 0.06
37254 H 79.26010499790266 20.401640290851326 54.66989695059638 H 0.0 **** 0.06
37255 H 78.53237202052719 19.549436610013828 56.05336687483904 H 0.0 **** 0.06
37256 C 31.764663812605193 43.929392290702225 98.50660059348067 C 0.0 **** -0.24
37257 H 31.577384587562165 44.95816732628876 98.81199782684104 H 0.0 **** 0.06
37258 H 31.88028668509287 43.302607023187306 99.39103472238443 H 0.0 **** 0.06
37259 H 32.67718029190081 43.887511449258085 97.91001788804672 H 0.0 **** 0.06
37260 H 30.925453665198432 43.56789513536461 97.91218973046338 H 0.0 **** 0.06
37261 C 28.541917331203052 84.68360931542941 25.22465177623478 C 0.0 **** -0.24
37262 H 28.30163519682911 84.59853959738928 24.165180808326575 H 0.0 **** 0.06
37263 H 27.69804763669228 84.32974836496354 25.817351974267112 H 0.0 **** 0.06
37264 H 28.744320608123218 85.72674523485645 25.46805988997285 H 0.0 **** 0.06
37265 H 29.42176711377573 84.08037873328331 25.447347368740836 H 0.0 **** 0.06
37266 C 27.240385463393523 23.26949441242533 82.80756263969417 C 0.0 **** -0.24
37267 H 28.22894495127275 22.836725982875663 82.96057488106018 H 0.0 **** 0.06
37268 H 26.953820147114357 23.840627471662543 83.69036921684062 H 0.0 **** 0.06
37269 H 26.517003449747676 22.471188053247232 82.63880067306752 H 0.0 **** 0.06
37270 H 27.262691021544924 23.92829955827375 81.93913969944208 H 0.0 **** 0.06
37271 C 67.93014648615986 63.44950534024213 31.54512995737312 C 0.0 **** -0.24
37272 H 68.00737850789307 64.45692160508685 31.135621913336223 H 0.0 **** 0.06
37273 H 67.2421369705975 62.86181689177547 30.935292713358336 H 0.0 **** 0.06
37274 H 67.55629167797161 63.500755297145666 32.56800736212105 H 0.0 **** 0.06
37275 H 68.91336897275187 62.97916168463487 31.53969766983826 H 0.0 **** 0.06
37276 C 3.3891311409657305 51.3479866757945 94.87474821567423 C 0.0 **** -0.24
37277 H 3.38173945712623 52.16883274738771 94.1581980265745 H 0.0 **** 0.06
37278 H 2.959950184758327 50.45866028207416 94.41350816235939 H 0.0 **** 0.06
37279 H 2.800746895141515 51.62405211072766 95.74984591860945 H 0.0 **** 0.06
37280 H 4.415326590016662 51.140575898467716 95.17810081554154 H 0.0 **** 0.06
37281 C 38.61167807478583 16.28082004066143 36.177360152652454 C 0.0 **** -0.24
37282 H 37.556042741871295 16.029696403625977 36.07820852603635 H 0.0 **** 0.06
37283 H 38.807445764735206 17.23043245088906 35.67865538067656 H 0.0 **** 0.06
37284 H 39.21592930647128 15.49779369195572 35.71781647761952 H 0.0 **** 0.06
37285 H 38.86721901089069 16.364944562707304 37.233079792607725 H 0.0 **** 0.06
37286 C 39.86297382823244 76.659069194008 25.421552964986965 C 0.0 **** -0.24
37287 H 38.93208238905806 76.26886979434909 25.008190201685593 H 0.0 **** 0.06
37288 H 40.26804096936468 75.94525990845608 26.139864962749698 H 0.0 **** 0.06
37289 H 39.66835599158047 77.60797430212438 25.92065424070241 H 0.0 **** 0.06
37290 H 40.58122911435479 76.81217226503423 24.616399628703746 H 0.0 **** 0.06
37291 C 35.59843019156369 10.846312498307498 29.32578014089237 C 0.0 **** -0.24
37292 H 35.20385681609031 10.15414925553074 28.581040522700448 H 0.0 **** 0.06
37293 H 35.56734850828485 10.377179311040805 30.30938937986768 H 0.0 **** 0.06
37294 H 34.9936692197214 11.75327922176794 29.335561565927314 H 0.0 **** 0.06
37295 H 36.62839634517488 11.098861917685753 29.075852981253988 H 0.0 **** 0.06
37296 C 51.013462669009826 69.5578990771136 73.57289624650227 C 0.0 **** -0.24
37297 H 50.919876384760855 70.08070499338649 72.62088746120705 H 0.0 **** 0.06
37298 H 50.090212853428326 69.01814765288469 73.78331796933813 H 0.0 **** 0.06
37299 H 51.20257163383946 70.27941534142502 74.36693096775593 H 0.0 **** 0.06
37300 H 51.8427145813122 68.8520923412197 73.51937728612867 H 0.0 **** 0.06
37301 C 101.45558025997408 44.21364580436226 66.08614679718272 C 0.0 **** -0.24
37302 H 101.48871686318597 44.5984585541506 65.06755307794958 H 0.0 **** 0.06
37303 H 101.4811542806163 45.045980686232426 66.78968198423101 H 0.0 **** 0.06
37304 H 102.31578708148243 43.56687043683334 66.25764885020985 H 0.0 **** 0.06
37305 H 100.53751416803689 43.643797852707934 66.22968458314261 H 0.0 **** 0.06
37306 C 79.47916827937274 86.2896953052836 63.824979192931266 C 0.0 **** -0.24
37307 H 80.12519123186041 86.96427882031492 63.262895063241956 H 0.0 **** 0.06
37308 H 79.74380415139001 86.33102995368776 64.88209767944585 H 0.0 **** 0.06
37309 H 79.60960403445756 85.27185348278692 63.45648128728914 H 0.0 **** 0.06
37310 H 78.44036444237241 86.59214318268863 63.69775134642538 H 0.0 **** 0.06
37311 C 60.40989913671166 43.08031427697898 96.80606480343758 C 0.0 **** -0.24
37312 H 59.624633553921825 42.42882204771951 97.19122846086492 H 0.0 **** 0.06
37313 H 60.923637449947336 43.56099160014827 97.63862134029011 H 0.0 **** 0.06
37314 H 59.967320786363814 43.84100201622846 96.16224903214805 H 0.0 **** 0.06
37315 H 61.12221942054441 42.487791873359924 96.23126989530545 H 0.0 **** 0.06
37316 C 22.59953732966531 33.11714168030713 109.48652988612525 C 0.0 **** -0.24
37317 H 23.344996599316545 32.32214736244981 109.50019115960379 H 0.0 **** 0.06
37318 H 21.74014679286003 32.79779624500094 108.89733594184258 H 0.0 **** 0.06
37319 H 23.033637208567967 34.01298507857973 109.04123212629028 H 0.0 **** 0.06
37320 H 22.28210506493849 33.33448269286487 110.50588444368097 H 0.0 **** 0.06
37321 C 90.56550968500372 37.21137349224114 67.67815323591475 C 0.0 **** -0.24
37322 H 89.50747539729238 37.020321429236446 67.85652830434424 H 0.0 **** 0.06
37323 H 90.8966908958327 38.03732695403886 68.30849447311559 H 0.0 **** 0.06
37324 H 90.71593246716736 37.471326824065954 66.6298343718716 H 0.0 **** 0.06
37325 H 91.14133434112458 36.31726718801718 67.91802619307819 H 0.0 **** 0.06
37326 C 21.217935627767304 27.85789405431646 121.90330166790123 C 0.0 **** -0.24
37327 H 21.939345165881093 28.612073437231928 121.58655579786587 H 0.0 **** 0.06
37328 H 21.74686401255161 27.007674330185893 122.3341071005602 H 0.0 **** 0.06
37329 H 20.637836268424905 27.527465432557875 121.04160868632626 H 0.0 **** 0.06
37330 H 20.549133595802232 28.286637251193724 122.6492723199511 H 0.0 **** 0.06
37331 C 79.55438691651239 35.00101172924287 59.95283737690462 C 0.0 **** -0.24
37332 H 79.56505617908073 35.915708455299516 60.546426673146904 H 0.0 **** 0.06
37333 H 79.54684792855915 34.1379468904726 60.61869350849384 H 0.0 **** 0.06
37334 H 80.44410324224322 34.96694849327295 59.323348111357184 H 0.0 **** 0.06
37335 H 78.66354930957698 34.98501623330304 59.3250001152611 H 0.0 **** 0.06
37336 C 4.010321633485685 96.5920842022299 52.3309635177013 C 0.0 **** -0.24
37337 H 3.663943324040204 96.16075217414945 53.26988089902802 H 0.0 **** 0.06
37338 H 3.1802882435886595 97.09601656124786 51.83540938426357 H 0.0 **** 0.06
37339 H 4.392021365866896 95.80073620160434 51.68714623611092 H 0.0 **** 0.06
37340 H 4.8034012292190695 97.31133752413635 52.53317254826422 H 0.0 **** 0.06
37341 C 88.70140837815143 61.250704986085 33.65816989790936 C 0.0 **** -0.24
37342 H 87.7411605705257 60.91991428990241 34.05362758248965 H 0.0 **** 0.06
37343 H 88.64043200017659 62.30656922726837 33.39414579994064 H 0.0 **** 0.06
37344 H 88.94976490017703 60.66773583419058 32.77114444804715 H 0.0 **** 0.06
37345 H 89.47390721656075 61.1085719889719 34.41469084967597 H 0.0 **** 0.06
37346 C 82.25541738470764 45.0273255373433 121.49320427666967 C 0.0 **** -0.24
37347 H 82.6812862180143 45.49975357049357 120.60737377188559 H 0.0 **** 0.06
37348 H 82.45443862804058 45.649277440580704 122.36641132521041 H 0.0 **** 0.06
37349 H 82.70745110493573 44.046572514764875 121.63429659804352 H 0.0 **** 0.06
37350 H 81.17930004667056 44.91645875876304 121.36341941978489 H 0.0 **** 0.06
37351 C 95.11275417214563 98.09349144339501 32.841315624114394 C 0.0 **** -0.24
37352 H 96.0668172371453 97.69293812116229 33.18487328601988 H 0.0 **** 0.06
37353 H 95.19637126738189 98.38147805849957 31.793299388964726 H 0.0 **** 0.06
37354 H 94.85038546855154 98.96692707811243 33.438653057068706 H 0.0 **** 0.06
37355 H 94.33977052287105 97.33382380622845 32.94989919906766 H 0.0 **** 0.06
37356 C 41.852382916819394 15.900139042836827 73.65047384318004 C 0.0 **** -0.24
37357 H 41.714424960286934 15.196086442657219 72.82993154536484 H 0.0 **** 0.06
37358 H 42.39942075427746 15.412391475792418 74.45777247911661 H 0.0 **** 0.06
37359 H 40.87923689124315 16.22762571996043 74.01600825433127 H 0.0 **** 0.06
37360 H 42.41678183745883 16.762799966743103 73.29671388887465 H 0.0 **** 0.06
37361 C 74.92135128968758 48.69547175411486 79.0496516107934 C 0.0 **** -0.24
37362 H 75.3105723963098 49.32371724944795 78.24823182271197 H 0.0 **** 0.06
37363 H 74.97797855328474 49.235342391201016 79.99452204681836 H 0.0 **** 0.06
37364 H 75.51336171760778 47.78268140412541 79.1159958433102 H 0.0 **** 0.06
37365 H 73.88245805213361 48.43963160463966 78.8390409650689 H 0.0 **** 0.06
37366 C 10.715497002691393 17.384394921671344 57.25170685657082 C 0.0 **** -0.24
37367 H 11.647464658542162 17.886612198022362 57.51137439606126 H 0.0 **** 0.06
37368 H 10.733193989205688 16.365480276264236 57.63865374977516 H 0.0 **** 0.06
37369 H 10.606181459258266 17.359500062465884 56.167678967677915 H 0.0 **** 0.06
37370 H 9.87702121053374 17.924887153263114 57.68965041404951 H 0.0 **** 0.06
37371 C 92.15484180998877 10.833500796266549 65.8941552172247 C 0.0 **** -0.24
37372 H 91.35221135970366 11.563860781004564 65.79141385573189 H 0.0 **** 0.06
37373 H 92.8047304276474 11.122529946386024 66.72082270131307 H 0.0 **** 0.06
37374 H 92.73360038757653 10.799265889225879 64.97111805073143 H 0.0 **** 0.06
37375 H 91.7288702227093 9.850704974374523 66.0926057944294 H 0.0 **** 0.06
37376 C 30.792381141915314 111.9715322933699 94.43392116443098 C 0.0 **** -0.24
37377 H 30.579060190624517 111.09117055206622 95.03984234905013 H 0.0 **** 0.06
37378 H 31.833662000408623 111.94699367483722 94.11194883163498 H 0.0 **** 0.06
37379 H 30.61489263729257 112.86989290757558 95.02418983522455 H 0.0 **** 0.06
37380 H 30.140603846036328 111.97633069911657 93.56021614197164 H 0.0 **** 0.06
37381 C 113.50613409899162 60.92033471472564 114.7903185840783 C 0.0 **** -0.24
37382 H 114.01642489110249 60.62935740208928 115.70848122723407 H 0.0 **** 0.06
37383 H 112.48385477291589 60.54165166842114 114.80804698519603 H 0.0 **** 0.06
37384 H 114.0345541535562 60.50326700406623 113.9330672224371 H 0.0 **** 0.06
37385 H 113.48895020000138 62.00816537360234 114.71373281420455 H 0.0 **** 0.06
37386 C 15.656214607607012 99.51121883114834 3.0110142742064454 C 0.0 **** -0.24
37387 H 14.986634437490395 99.15748725704299 2.226801600304441 H 0.0 **** 0.06
37388 H 16.603682798671173 99.81984703513311 2.56818491630429 H 0.0 **** 0.06
37389 H 15.833224342103392 98.70847390416398 3.727354492416225 H 0.0 **** 0.06
37390 H 15.200427035589101 100.35949778968788 3.5218671270524737 H 0.0 **** 0.06
37391 C 38.56351370584406 62.075873722422045 87.23131103215053 C 0.0 **** -0.24
37392 H 39.65184982251202 62.04409992303516 87.17040033710063 H 0.0 **** 0.06
37393 H 38.2617082341371 62.84059436848662 87.94695194462221 H 0.0 **** 0.06
37394 H 38.18976275363255 61.10494907794407 87.55667805214006 H 0.0 **** 0.06
37395 H 38.15223934819022 62.31242670130962 86.24990834796031 H 0.0 **** 0.06
37396 C 120.29547035381133 37.4654247422644 68.90684388346614 C 0.0 **** -0.24
37397 H 119.75991140143262 36.5299553209031 68.7446319635755 H 0.0 **** 0.06
37398 H 121.2083168964326 37.26803332912522 69.46928408114593 H 0.0 **** 0.06
37399 H 119.66353348244836 38.15329089978195 69.46845946258125 H 0.0 **** 0.06
37400 H 120.55045157464204 37.90893691368149 67.94369917456191 H 0.0 **** 0.06
37401 C 16.058155258572754 107.6686371944069 32.84904664762689 C 0.0 **** -0.24
37402 H 16.769348597001567 107.05756565390337 32.29130310601619 H 0.0 **** 0.06
37403 H 16.59990681490885 108.37909205770018 33.47305645620753 H 0.0 **** 0.06
37404 H 15.44331486116792 107.02513058226788 33.47842941137617 H 0.0 **** 0.06
37405 H 15.419708114882866 108.21005690020408 32.150303400410166 H 0.0 **** 0.06
37406 C 43.098598047370956 43.72372791335219 17.802357743947645 C 0.0 **** -0.24
37407 H 44.117765285390306 43.89662056023687 17.45644675708649 H 0.0 **** 0.06
37408 H 43.09358399530959 43.631513741890444 18.888697270126208 H 0.0 **** 0.06
37409 H 42.71549604935302 42.80487150588954 17.357273538660568 H 0.0 **** 0.06
37410 H 42.4670338852784 44.561106952710475 17.50525305465447 H 0.0 **** 0.06
37411 C 7.586918188466598 34.43158536465063 34.088820846355944 C 0.0 **** -0.24
37412 H 6.67476292873198 34.216779230263796 33.53218610902114 H 0.0 **** 0.06
37413 H 7.363758133920982 35.130538949822835 34.89600032058988 H 0.0 **** 0.06
37414 H 8.325770833829836 34.871381113556595 33.41992061344476 H 0.0 **** 0.06
37415 H 7.9822119098352005 33.50634283444279 34.50889262783784 H 0.0 **** 0.06
37416 C 115.46958741059461 2.603237876606755 94.29822491682725 C 0.0 **** -0.24
37417 H 115.94562599644041 1.9117014176189002 94.99306352675171 H 0.0 **** 0.06
37418 H 116.0955612347048 2.7175209574659505 93.4125791957924 H 0.0 **** 0.06
37419 H 115.3410972013852 3.571911905960775 94.78063862935878 H 0.0 **** 0.06
37420 H 114.49539312210035 2.211292416889961 94.00609588859842 H 0.0 **** 0.06
37421 C 42.306062140863325 122.53200719957283 30.45442242608243 C 0.0 **** -0.24
37422 H 41.65208362853915 123.1355981532732 31.084912929188135 H 0.0 **** 0.06
37423 H 43.178247771597746 123.11996521304397 30.168771024361774 H 0.0 **** 0.06
37424 H 41.765146875890274 122.22410115706492 29.559908231930677 H 0.0 **** 0.06
37425 H 42.62820950169805 121.64886700983328 31.007001529510944 H 0.0 **** 0.06
37426 C 21.65709116751247 106.245860282265 85.21393160949009 C 0.0 **** -0.24
37427 H 22.137843105266306 105.85303775163825 84.31805652972707 H 0.0 **** 0.06
37428 H 21.52359833225991 107.32310459630057 85.11108939216012 H 0.0 **** 0.06
37429 H 22.281822316005616 106.03748985633689 86.08196146822283 H 0.0 **** 0.06
37430 H 20.685406385021274 105.76944591111788 85.34267607777312 H 0.0 **** 0.06
37431 C 87.37996731599833 86.78163829034867 113.81077430760291 C 0.0 **** -0.24
37432 H 86.82522089182598 86.01394846512653 114.35068068225081 H 0.0 **** 0.06
37433 H 88.41754325317709 86.465225276371 113.69562566199826 H 0.0 **** 0.06
37434 H 87.3447387357433 87.71624050833381 114.37068928090852 H 0.0 **** 0.06
37435 H 86.93271950241041 86.92831083220241 112.82852607494067 H 0.0 **** 0.06
37436 C 40.59703252361983 16.67402215265264 51.152184632062415 C 0.0 **** -0.24
37437 H 39.83019774804916 17.43062326908165 51.3191915831913 H 0.0 **** 0.06
37438 H 41.51659765842619 17.156041844922584 50.81906580454526 H 0.0 **** 0.06
37439 H 40.25624867255465 15.974084254237994 50.38850898229197 H 0.0 **** 0.06
37440 H 40.785051891968635 16.135510123670088 52.08098742941016 H 0.0 **** 0.06
37441 C 91.77797898273406 58.861099727076756 103.24878330536896 C 0.0 **** -0.24
37442 H 92.350834675886 59.15620073259807 104.12757272725341 H 0.0 **** 0.06
37443 H 90.85085828956679 58.38056095175718 103.56377207199355 H 0.0 **** 0.06
37444 H 92.36489005618671 58.16310850356755 102.65123012145992 H 0.0 **** 0.06
37445 H 91.545999363287 59.74379410939175 102.65243085889588 H 0.0 **** 0.06
37446 C 97.9225707067983 85.39068129665941 117.19113194792769 C 0.0 **** -0.24
37447 H 98.44425064865726 85.83022451881286 118.04201090071842 H 0.0 **** 0.06
37448 H 97.99724664907822 84.30489231197828 117.24069857520652 H 0.0 **** 0.06
37449 H 98.37624869764753 85.74500054655792 116.26480352133808 H 0.0 **** 0.06
37450 H 96.87379351423067 85.68527836700144 117.2175527273042 H 0.0 **** 0.06
37451 C 22.400728903332833 18.835772205588825 50.834085575866716 C 0.0 **** -0.24
37452 H 22.32395922107648 19.887338566439325 50.559329898628256 H 0.0 **** 0.06
37453 H 22.625821443593566 18.243900701236214 49.9460041117708 H 0.0 **** 0.06
37454 H 21.456736903228318 18.502565999234633 51.26362925972917 H 0.0 **** 0.06
37455 H 23.19851470054695 18.708927986192123 51.56675164195426 H 0.0 **** 0.06
37456 C 79.59829295639159 58.209560351889024 22.05290955040965 C 0.0 **** -0.24
37457 H 78.79177414339989 58.53042526539812 22.712408796329044 H 0.0 **** 0.06
37458 H 79.29237202621073 57.3124323636917 21.51493755133265 H 0.0 **** 0.06
37459 H 80.48690540786237 57.992982134433646 22.64617335182743 H 0.0 **** 0.06
37460 H 79.82115903710445 59.002993100680385 21.340048924585403 H 0.0 **** 0.06
37461 C 21.117525571809864 27.11973713204638 52.818768945622445 C 0.0 **** -0.24
37462 H 21.64580825032084 28.068972142872752 52.90866578081802 H 0.0 **** 0.06
37463 H 20.602384647952533 26.90145621109042 53.7540290037882 H 0.0 **** 0.06
37464 H 21.831070344064784 26.325462915724998 52.60101353408961 H 0.0 **** 0.06
37465 H 20.388911274779673 27.185746993564592 52.00993576856068 H 0.0 **** 0.06
37466 C 6.460897952187565 75.87286390560212 34.47299547993222 C 0.0 **** -0.24
37467 H 6.378695063960009 74.98340421502948 35.09823008609979 H 0.0 **** 0.06
37468 H 7.11942236217763 76.59505180353563 34.955575390546784 H 0.0 **** 0.06
37469 H 5.473983908668657 76.31333602026953 34.33673458531109 H 0.0 **** 0.06
37470 H 6.873027984157289 75.59706423768367 33.50237995153614 H 0.0 **** 0.06
37471 C 19.25040256737259 84.3734279533827 114.83957600629526 C 0.0 **** -0.24
37472 H 19.566005950831936 85.31409606075226 115.29044863301633 H 0.0 **** 0.06
37473 H 20.068271764012025 83.65517956872131 114.88758963172873 H 0.0 **** 0.06
37474 H 18.975437199015346 84.54318048606228 113.79889439499019 H 0.0 **** 0.06
37475 H 18.390079575296795 83.98202400025843 115.3828249772873 H 0.0 **** 0.06
37476 C 2.624248034785751 121.85969563866047 7.857997061223877 C 0.0 **** -0.24
37477 H 1.9838709063040483 122.70750599516882 7.61592718236648 H 0.0 **** 0.06
37478 H 3.3769859184269393 122.16858096972732 8.584973535687176 H 0.0 **** 0.06
37479 H 3.11719274326218 121.50634069159685 6.952083186222183 H 0.0 **** 0.06
37480 H 2.0205940776839526 121.05685676081609 8.279148656309296 H 0.0 **** 0.06
37481 C 47.70054849874103 101.33629803151487 89.5570125472766 C 0.0 **** -0.24
37482 H 46.76916371578314 101.8833501415657 89.41187989193565 H 0.0 **** 0.06
37483 H 47.54478170916312 100.28446274058246 89.31632315788676 H 0.0 **** 0.06
37484 H 48.01752847490589 101.4299025130926 90.59531210926403 H 0.0 **** 0.06
37485 H 48.468701234112416 101.74909421043978 88.90271609720975 H 0.0 **** 0.06
37486 C 119.06433834454748 82.28984517589865 87.26500875860526 C 0.0 **** -0.24
37487 H 119.58410744227648 82.07385898057794 88.19821889287527 H 0.0 **** 0.06
37488 H 118.05028555775695 82.62664633248815 87.4837555033616 H 0.0 **** 0.06
37489 H 119.02425869997884 81.38855629721871 86.65446799038673 H 0.0 **** 0.06
37490 H 119.59916405192217 83.07130939943156 86.72449020873168 H 0.0 **** 0.06
37491 C 21.823547773485302 21.07566260421555 64.34884694776383 C 0.0 **** -0.24
37492 H 22.543668826008613 21.827435136490436 64.67199994865422 H 0.0 **** 0.06
37493 H 22.158388792164487 20.631197168486636 63.411414221102916 H 0.0 **** 0.06
37494 H 20.85024533535335 21.545512850587897 64.20149589443622 H 0.0 **** 0.06
37495 H 21.74075518358387 20.300677056820405 65.11048458254061 H 0.0 **** 0.06
37496 C 28.406586195972636 96.85911915223207 56.07516737219365 C 0.0 **** -0.24
37497 H 28.42391388993576 95.96425266215886 56.69724200027164 H 0.0 **** 0.06
37498 H 28.094760432811178 97.7129312015717 56.67658719036936 H 0.0 **** 0.06
37499 H 27.703140058736317 96.71638174767926 55.254533029133 H 0.0 **** 0.06
37500 H 29.402512014643875 97.04167556309531 55.67293984041882 H 0.0 **** 0.06
@<TRIPOS>BOND
1 1 2 28
2 1 3 28
3 1 4 28
4 1 5 28
5 6 7 28
6 6 8 28
7 6 9 28
8 6 10 28
9 11 12 28
10 11 13 28
11 11 14 28
12 11 15 28
13 16 17 28
14 16 18 28
15 16 19 28
16 16 20 28
17 21 22 28
18 21 23 28
19 21 24 28
20 21 25 28
21 26 27 28
22 26 28 28
23 26 29 28
24 26 30 28
25 31 32 28
26 31 33 28
27 31 34 28
28 31 35 28
29 36 37 28
30 36 38 28
31 36 39 28
32 36 40 28
33 41 42 28
34 41 43 28
35 41 44 28
36 41 45 28
37 46 47 28
38 46 48 28
39 46 49 28
40 46 50 28
41 51 52 28
42 51 53 28
43 51 54 28
44 51 55 28
45 56 57 28
46 56 58 28
47 56 59 28
48 56 60 28
49 61 62 28
50 61 63 28
51 61 64 28
52 61 65 28
53 66 67 28
54 66 68 28
55 66 69 28
56 66 70 28
57 71 72 28
58 71 73 28
59 71 74 28
60 71 75 28
61 76 77 28
62 76 78 28
63 76 79 28
64 76 80 28
65 81 82 28
66 81 83 28
67 81 84 28
68 81 85 28
69 86 87 28
70 86 88 28
71 86 89 28
72 86 90 28
73 91 92 28
74 91 93 28
75 91 94 28
76 91 95 28
77 96 97 28
78 96 98 28
79 96 99 28
80 96 100 28
81 101 102 28
82 101 103 28
83 101 104 28
84 101 105 28
85 106 107 28
86 106 108 28
87 106 109 28
88 106 110 28
89 111 112 28
90 111 113 28
91 111 114 28
92 111 115 28
93 116 117 28
94 116 118 28
95 116 119 28
96 116 120 28
97 121 122 28
98 121 123 28
99 121 124 28
100 121 125 28
101 126 127 28
102 126 128 28
103 126 129 28
104 126 130 28
105 131 132 28
106 131 133 28
107 131 134 28
108 131 135 28
109 136 137 28
110 136 138 28
111 136 139 28
112 136 140 28
113 141 142 28
114 141 143 28
115 141 144 28
116 141 145 28
117 146 147 28
118 146 148 28
119 146 149 28
120 146 150 28
121 151 152 28
122 151 153 28
123 151 154 28
124 151 155 28
125 156 157 28
126 156 158 28
127 156 159 28
128 156 160 28
129 161 162 28
130 161 163 28
131 161 164 28
132 161 165 28
133 166 167 28
134 166 168 28
135 166 169 28
136 166 170 28
137 171 172 28
138 171 173 28
139 171 174 28
140 171 175 28
141 176 177 28
142 176 178 28
143 176 179 28
144 176 180 28
145 181 182 28
146 181 183 28
147 181 184 28
148 181 185 28
149 186 187 28
150 186 188 28
151 186 189 28
152 186 190 28
153 191 192 28
154 191 193 28
155 191 194 28
156 191 195 28
157 196 197 28
158 196 198 28
159 196 199 28
160 196 200 28
161 201 202 28
162 201 203 28
163 201 204 28
164 201 205 28
165 206 207 28
166 206 208 28
167 206 209 28
168 206 210 28
169 211 212 28
170 211 213 28
171 211 214 28
172 211 215 28
173 216 217 28
174 216 218 28
175 216 219 28
176 216 220 28
177 221 222 28
178 221 223 28
179 221 224 28
180 221 225 28
181 226 227 28
182 226 228 28
183 226 229 28
184 226 230 28
185 231 232 28
186 231 233 28
187 231 234 28
188 231 235 28
189 236 237 28
190 236 238 28
191 236 239 28
192 236 240 28
193 241 242 28
194 241 243 28
195 241 244 28
196 241 245 28
197 246 247 28
198 246 248 28
199 246 249 28
200 246 250 28
201 251 252 28
202 251 253 28
203 251 254 28
204 251 255 28
205 256 257 28
206 256 258 28
207 256 259 28
208 256 260 28
209 261 262 28
210 261 263 28
211 261 264 28
212 261 265 28
213 266 267 28
214 266 268 28
215 266 269 28
216 266 270 28
217 271 272 28
218 271 273 28
219 271 274 28
220 271 275 28
221 276 277 28
222 276 278 28
223 276 279 28
224 276 280 28
225 281 282 28
226 281 283 28
227 281 284 28
228 281 285 28
229 286 287 28
230 286 288 28
231 286 289 28
232 286 290 28
233 291 292 28
234 291 293 28
235 291 294 28
236 291 295 28
237 296 297 28
238 296 298 28
239 296 299 28
240 296 300 28
241 301 302 28
242 301 303 28
243 301 304 28
244 301 305 28
245 306 307 28
246 306 308 28
247 306 309 28
248 306 310 28
249 311 312 28
250 311 313 28
251 311 314 28
252 311 315 28
253 316 317 28
254 316 318 28
255 316 319 28
256 316 320 28
257 321 322 28
258 321 323 28
259 321 324 28
260 321 325 28
261 326 327 28
262 326 328 28
263 326 329 28
264 326 330 28
265 331 332 28
266 331 333 28
267 331 334 28
268 331 335 28
269 336 337 28
270 336 338 28
271 336 339 28
272 336 340 28
273 341 342 28
274 341 343 28
275 341 344 28
276 341 345 28
277 346 347 28
278 346 348 28
279 346 349 28
280 346 350 28
281 351 352 28
282 351 353 28
283 351 354 28
284 351 355 28
285 356 357 28
286 356 358 28
287 356 359 28
288 356 360 28
289 361 362 28
290 361 363 28
291 361 364 28
292 361 365 28
293 366 367 28
294 366 368 28
295 366 369 28
296 366 370 28
297 371 372 28
298 371 373 28
299 371 374 28
300 371 375 28
301 376 377 28
302 376 378 28
303 376 379 28
304 376 380 28
305 381 382 28
306 381 383 28
307 381 384 28
308 381 385 28
309 386 387 28
310 386 388 28
311 386 389 28
312 386 390 28
313 391 392 28
314 391 393 28
315 391 394 28
316 391 395 28
317 396 397 28
318 396 398 28
319 396 399 28
320 396 400 28
321 401 402 28
322 401 403 28
323 401 404 28
324 401 405 28
325 406 407 28
326 406 408 28
327 406 409 28
328 406 410 28
329 411 412 28
330 411 413 28
331 411 414 28
332 411 415 28
333 416 417 28
334 416 418 28
335 416 419 28
336 416 420 28
337 421 422 28
338 421 423 28
339 421 424 28
340 421 425 28
341 426 427 28
342 426 428 28
343 426 429 28
344 426 430 28
345 431 432 28
346 431 433 28
347 431 434 28
348 431 435 28
349 436 437 28
350 436 438 28
351 436 439 28
352 436 440 28
353 441 442 28
354 441 443 28
355 441 444 28
356 441 445 28
357 446 447 28
358 446 448 28
359 446 449 28
360 446 450 28
361 451 452 28
362 451 453 28
363 451 454 28
364 451 455 28
365 456 457 28
366 456 458 28
367 456 459 28
368 456 460 28
369 461 462 28
370 461 463 28
371 461 464 28
372 461 465 28
373 466 467 28
374 466 468 28
375 466 469 28
376 466 470 28
377 471 472 28
378 471 473 28
379 471 474 28
380 471 475 28
381 476 477 28
382 476 478 28
383 476 479 28
384 476 480 28
385 481 482 28
386 481 483 28
387 481 484 28
388 481 485 28
389 486 487 28
390 486 488 28
391 486 489 28
392 486 490 28
393 491 492 28
394 491 493 28
395 491 494 28
396 491 495 28
397 496 497 28
398 496 498 28
399 496 499 28
400 496 500 28
401 501 502 28
402 501 503 28
403 501 504 28
404 501 505 28
405 506 507 28
406 506 508 28
407 506 509 28
408 506 510 28
409 511 512 28
410 511 513 28
411 511 514 28
412 511 515 28
413 516 517 28
414 516 518 28
415 516 519 28
416 516 520 28
417 521 522 28
418 521 523 28
419 521 524 28
420 521 525 28
421 526 527 28
422 526 528 28
423 526 529 28
424 526 530 28
425 531 532 28
426 531 533 28
427 531 534 28
428 531 535 28
429 536 537 28
430 536 538 28
431 536 539 28
432 536 540 28
433 541 542 28
434 541 543 28
435 541 544 28
436 541 545 28
437 546 547 28
438 546 548 28
439 546 549 28
440 546 550 28
441 551 552 28
442 551 553 28
443 551 554 28
444 551 555 28
445 556 557 28
446 556 558 28
447 556 559 28
448 556 560 28
449 561 562 28
450 561 563 28
451 561 564 28
452 561 565 28
453 566 567 28
454 566 568 28
455 566 569 28
456 566 570 28
457 571 572 28
458 571 573 28
459 571 574 28
460 571 575 28
461 576 577 28
462 576 578 28
463 576 579 28
464 576 580 28
465 581 582 28
466 581 583 28
467 581 584 28
468 581 585 28
469 586 587 28
470 586 588 28
471 586 589 28
472 586 590 28
473 591 592 28
474 591 593 28
475 591 594 28
476 591 595 28
477 596 597 28
478 596 598 28
479 596 599 28
480 596 600 28
481 601 602 28
482 601 603 28
483 601 604 28
484 601 605 28
485 606 607 28
486 606 608 28
487 606 609 28
488 606 610 28
489 611 612 28
490 611 613 28
491 611 614 28
492 611 615 28
493 616 617 28
494 616 618 28
495 616 619 28
496 616 620 28
497 621 622 28
498 621 623 28
499 621 624 28
500 621 625 28
501 626 627 28
502 626 628 28
503 626 629 28
504 626 630 28
505 631 632 28
506 631 633 28
507 631 634 28
508 631 635 28
509 636 637 28
510 636 638 28
511 636 639 28
512 636 640 28
513 641 642 28
514 641 643 28
515 641 644 28
516 641 645 28
517 646 647 28
518 646 648 28
519 646 649 28
520 646 650 28
521 651 652 28
522 651 653 28
523 651 654 28
524 651 655 28
525 656 657 28
526 656 658 28
527 656 659 28
528 656 660 28
529 661 662 28
530 661 663 28
531 661 664 28
532 661 665 28
533 666 667 28
534 666 668 28
535 666 669 28
536 666 670 28
537 671 672 28
538 671 673 28
539 671 674 28
540 671 675 28
541 676 677 28
542 676 678 28
543 676 679 28
544 676 680 28
545 681 682 28
546 681 683 28
547 681 684 28
548 681 685 28
549 686 687 28
550 686 688 28
551 686 689 28
552 686 690 28
553 691 692 28
554 691 693 28
555 691 694 28
556 691 695 28
557 696 697 28
558 696 698 28
559 696 699 28
560 696 700 28
561 701 702 28
562 701 703 28
563 701 704 28
564 701 705 28
565 706 707 28
566 706 708 28
567 706 709 28
568 706 710 28
569 711 712 28
570 711 713 28
571 711 714 28
572 711 715 28
573 716 717 28
574 716 718 28
575 716 719 28
576 716 720 28
577 721 722 28
578 721 723 28
579 721 724 28
580 721 725 28
581 726 727 28
582 726 728 28
583 726 729 28
584 726 730 28
585 731 732 28
586 731 733 28
587 731 734 28
588 731 735 28
589 736 737 28
590 736 738 28
591 736 739 28
592 736 740 28
593 741 742 28
594 741 743 28
595 741 744 28
596 741 745 28
597 746 747 28
598 746 748 28
599 746 749 28
600 746 750 28
601 751 752 28
602 751 753 28
603 751 754 28
604 751 755 28
605 756 757 28
606 756 758 28
607 756 759 28
608 756 760 28
609 761 762 28
610 761 763 28
611 761 764 28
612 761 765 28
613 766 767 28
614 766 768 28
615 766 769 28
616 766 770 28
617 771 772 28
618 771 773 28
619 771 774 28
620 771 775 28
621 776 777 28
622 776 778 28
623 776 779 28
624 776 780 28
625 781 782 28
626 781 783 28
627 781 784 28
628 781 785 28
629 786 787 28
630 786 788 28
631 786 789 28
632 786 790 28
633 791 792 28
634 791 793 28
635 791 794 28
636 791 795 28
637 796 797 28
638 796 798 28
639 796 799 28
640 796 800 28
641 801 802 28
642 801 803 28
643 801 804 28
644 801 805 28
645 806 807 28
646 806 808 28
647 806 809 28
648 806 810 28
649 811 812 28
650 811 813 28
651 811 814 28
652 811 815 28
653 816 817 28
654 816 818 28
655 816 819 28
656 816 820 28
657 821 822 28
658 821 823 28
659 821 824 28
660 821 825 28
661 826 827 28
662 826 828 28
663 826 829 28
664 826 830 28
665 831 832 28
666 831 833 28
667 831 834 28
668 831 835 28
669 836 837 28
670 836 838 28
671 836 839 28
672 836 840 28
673 841 842 28
674 841 843 28
675 841 844 28
676 841 845 28
677 846 847 28
678 846 848 28
679 846 849 28
680 846 850 28
681 851 852 28
682 851 853 28
683 851 854 28
684 851 855 28
685 856 857 28
686 856 858 28
687 856 859 28
688 856 860 28
689 861 862 28
690 861 863 28
691 861 864 28
692 861 865 28
693 866 867 28
694 866 868 28
695 866 869 28
696 866 870 28
697 871 872 28
698 871 873 28
699 871 874 28
700 871 875 28
701 876 877 28
702 876 878 28
703 876 879 28
704 876 880 28
705 881 882 28
706 881 883 28
707 881 884 28
708 881 885 28
709 886 887 28
710 886 888 28
711 886 889 28
712 886 890 28
713 891 892 28
714 891 893 28
715 891 894 28
716 891 895 28
717 896 897 28
718 896 898 28
719 896 899 28
720 896 900 28
721 901 902 28
722 901 903 28
723 901 904 28
724 901 905 28
725 906 907 28
726 906 908 28
727 906 909 28
728 906 910 28
729 911 912 28
730 911 913 28
731 911 914 28
732 911 915 28
733 916 917 28
734 916 918 28
735 916 919 28
736 916 920 28
737 921 922 28
738 921 923 28
739 921 924 28
740 921 925 28
741 926 927 28
742 926 928 28
743 926 929 28
744 926 930 28
745 931 932 28
746 931 933 28
747 931 934 28
748 931 935 28
749 936 937 28
750 936 938 28
751 936 939 28
752 936 940 28
753 941 942 28
754 941 943 28
755 941 944 28
756 941 945 28
757 946 947 28
758 946 948 28
759 946 949 28
760 946 950 28
761 951 952 28
762 951 953 28
763 951 954 28
764 951 955 28
765 956 957 28
766 956 958 28
767 956 959 28
768 956 960 28
769 961 962 28
770 961 963 28
771 961 964 28
772 961 965 28
773 966 967 28
774 966 968 28
775 966 969 28
776 966 970 28
777 971 972 28
778 971 973 28
779 971 974 28
780 971 975 28
781 976 977 28
782 976 978 28
783 976 979 28
784 976 980 28
785 981 982 28
786 981 983 28
787 981 984 28
788 981 985 28
789 986 987 28
790 986 988 28
791 986 989 28
792 986 990 28
793 991 992 28
794 991 993 28
795 991 994 28
796 991 995 28
797 996 997 28
798 996 998 28
799 996 999 28
800 996 1000 28
801 1001 1002 28
802 1001 1003 28
803 1001 1004 28
804 1001 1005 28
805 1006 1007 28
806 1006 1008 28
807 1006 1009 28
808 1006 1010 28
809 1011 1012 28
810 1011 1013 28
811 1011 1014 28
812 1011 1015 28
813 1016 1017 28
814 1016 1018 28
815 1016 1019 28
816 1016 1020 28
817 1021 1022 28
818 1021 1023 28
819 1021 1024 28
820 1021 1025 28
821 1026 1027 28
822 1026 1028 28
823 1026 1029 28
824 1026 1030 28
825 1031 1032 28
826 1031 1033 28
827 1031 1034 28
828 1031 1035 28
829 1036 1037 28
830 1036 1038 28
831 1036 1039 28
832 1036 1040 28
833 1041 1042 28
834 1041 1043 28
835 1041 1044 28
836 1041 1045 28
837 1046 1047 28
838 1046 1048 28
839 1046 1049 28
840 1046 1050 28
841 1051 1052 28
842 1051 1053 28
843 1051 1054 28
844 1051 1055 28
845 1056 1057 28
846 1056 1058 28
847 1056 1059 28
848 1056 1060 28
849 1061 1062 28
850 1061 1063 28
851 1061 1064 28
852 1061 1065 28
853 1066 1067 28
854 1066 1068 28
855 1066 1069 28
856 1066 1070 28
857 1071 1072 28
858 1071 1073 28
859 1071 1074 28
860 1071 1075 28
861 1076 1077 28
862 1076 1078 28
863 1076 1079 28
864 1076 1080 28
865 1081 1082 28
866 1081 1083 28
867 1081 1084 28
868 1081 1085 28
869 1086 1087 28
870 1086 1088 28
871 1086 1089 28
872 1086 1090 28
873 1091 1092 28
874 1091 1093 28
875 1091 1094 28
876 1091 1095 28
877 1096 1097 28
878 1096 1098 28
879 1096 1099 28
880 1096 1100 28
881 1101 1102 28
882 1101 1103 28
883 1101 1104 28
884 1101 1105 28
885 1106 1107 28
886 1106 1108 28
887 1106 1109 28
888 1106 1110 28
889 1111 1112 28
890 1111 1113 28
891 1111 1114 28
892 1111 1115 28
893 1116 1117 28
894 1116 1118 28
895 1116 1119 28
896 1116 1120 28
897 1121 1122 28
898 1121 1123 28
899 1121 1124 28
900 1121 1125 28
901 1126 1127 28
902 1126 1128 28
903 1126 1129 28
904 1126 1130 28
905 1131 1132 28
906 1131 1133 28
907 1131 1134 28
908 1131 1135 28
909 1136 1137 28
910 1136 1138 28
911 1136 1139 28
912 1136 1140 28
913 1141 1142 28
914 1141 1143 28
915 1141 1144 28
916 1141 1145 28
917 1146 1147 28
918 1146 1148 28
919 1146 1149 28
920 1146 1150 28
921 1151 1152 28
922 1151 1153 28
923 1151 1154 28
924 1151 1155 28
925 1156 1157 28
926 1156 1158 28
927 1156 1159 28
928 1156 1160 28
929 1161 1162 28
930 1161 1163 28
931 1161 1164 28
932 1161 1165 28
933 1166 1167 28
934 1166 1168 28
935 1166 1169 28
936 1166 1170 28
937 1171 1172 28
938 1171 1173 28
939 1171 1174 28
940 1171 1175 28
941 1176 1177 28
942 1176 1178 28
943 1176 1179 28
944 1176 1180 28
945 1181 1182 28
946 1181 1183 28
947 1181 1184 28
948 1181 1185 28
949 1186 1187 28
950 1186 1188 28
951 1186 1189 28
952 1186 1190 28
953 1191 1192 28
954 1191 1193 28
955 1191 1194 28
956 1191 1195 28
957 1196 1197 28
958 1196 1198 28
959 1196 1199 28
960 1196 1200 28
961 1201 1202 28
962 1201 1203 28
963 1201 1204 28
964 1201 1205 28
965 1206 1207 28
966 1206 1208 28
967 1206 1209 28
968 1206 1210 28
969 1211 1212 28
970 1211 1213 28
971 1211 1214 28
972 1211 1215 28
973 1216 1217 28
974 1216 1218 28
975 1216 1219 28
976 1216 1220 28
977 1221 1222 28
978 1221 1223 28
979 1221 1224 28
980 1221 1225 28
981 1226 1227 28
982 1226 1228 28
983 1226 1229 28
984 1226 1230 28
985 1231 1232 28
986 1231 1233 28
987 1231 1234 28
988 1231 1235 28
989 1236 1237 28
990 1236 1238 28
991 1236 1239 28
992 1236 1240 28
993 1241 1242 28
994 1241 1243 28
995 1241 1244 28
996 1241 1245 28
997 1246 1247 28
998 1246 1248 28
999 1246 1249 28
1000 1246 1250 28
1001 1251 1252 28
1002 1251 1253 28
1003 1251 1254 28
1004 1251 1255 28
1005 1256 1257 28
1006 1256 1258 28
1007 1256 1259 28
1008 1256 1260 28
1009 1261 1262 28
1010 1261 1263 28
1011 1261 1264 28
1012 1261 1265 28
1013 1266 1267 28
1014 1266 1268 28
1015 1266 1269 28
1016 1266 1270 28
1017 1271 1272 28
1018 1271 1273 28
1019 1271 1274 28
1020 1271 1275 28
1021 1276 1277 28
1022 1276 1278 28
1023 1276 1279 28
1024 1276 1280 28
1025 1281 1282 28
1026 1281 1283 28
1027 1281 1284 28
1028 1281 1285 28
1029 1286 1287 28
1030 1286 1288 28
1031 1286 1289 28
1032 1286 1290 28
1033 1291 1292 28
1034 1291 1293 28
1035 1291 1294 28
1036 1291 1295 28
1037 1296 1297 28
1038 1296 1298 28
1039 1296 1299 28
1040 1296 1300 28
1041 1301 1302 28
1042 1301 1303 28
1043 1301 1304 28
1044 1301 1305 28
1045 1306 1307 28
1046 1306 1308 28
1047 1306 1309 28
1048 1306 1310 28
1049 1311 1312 28
1050 1311 1313 28
1051 1311 1314 28
1052 1311 1315 28
1053 1316 1317 28
1054 1316 1318 28
1055 1316 1319 28
1056 1316 1320 28
1057 1321 1322 28
1058 1321 1323 28
1059 1321 1324 28
1060 1321 1325 28
1061 1326 1327 28
1062 1326 1328 28
1063 1326 1329 28
1064 1326 1330 28
1065 1331 1332 28
1066 1331 1333 28
1067 1331 1334 28
1068 1331 1335 28
1069 1336 1337 28
1070 1336 1338 28
1071 1336 1339 28
1072 1336 1340 28
1073 1341 1342 28
1074 1341 1343 28
1075 1341 1344 28
1076 1341 1345 28
1077 1346 1347 28
1078 1346 1348 28
1079 1346 1349 28
1080 1346 1350 28
1081 1351 1352 28
1082 1351 1353 28
1083 1351 1354 28
1084 1351 1355 28
1085 1356 1357 28
1086 1356 1358 28
1087 1356 1359 28
1088 1356 1360 28
1089 1361 1362 28
1090 1361 1363 28
1091 1361 1364 28
1092 1361 1365 28
1093 1366 1367 28
1094 1366 1368 28
1095 1366 1369 28
1096 1366 1370 28
1097 1371 1372 28
1098 1371 1373 28
1099 1371 1374 28
1100 1371 1375 28
1101 1376 1377 28
1102 1376 1378 28
1103 1376 1379 28
1104 1376 1380 28
1105 1381 1382 28
1106 1381 1383 28
1107 1381 1384 28
1108 1381 1385 28
1109 1386 1387 28
1110 1386 1388 28
1111 1386 1389 28
1112 1386 1390 28
1113 1391 1392 28
1114 1391 1393 28
1115 1391 1394 28
1116 1391 1395 28
1117 1396 1397 28
1118 1396 1398 28
1119 1396 1399 28
1120 1396 1400 28
1121 1401 1402 28
1122 1401 1403 28
1123 1401 1404 28
1124 1401 1405 28
1125 1406 1407 28
1126 1406 1408 28
1127 1406 1409 28
1128 1406 1410 28
1129 1411 1412 28
1130 1411 1413 28
1131 1411 1414 28
1132 1411 1415 28
1133 1416 1417 28
1134 1416 1418 28
1135 1416 1419 28
1136 1416 1420 28
1137 1421 1422 28
1138 1421 1423 28
1139 1421 1424 28
1140 1421 1425 28
1141 1426 1427 28
1142 1426 1428 28
1143 1426 1429 28
1144 1426 1430 28
1145 1431 1432 28
1146 1431 1433 28
1147 1431 1434 28
1148 1431 1435 28
1149 1436 1437 28
1150 1436 1438 28
1151 1436 1439 28
1152 1436 1440 28
1153 1441 1442 28
1154 1441 1443 28
1155 1441 1444 28
1156 1441 1445 28
1157 1446 1447 28
1158 1446 1448 28
1159 1446 1449 28
1160 1446 1450 28
1161 1451 1452 28
1162 1451 1453 28
1163 1451 1454 28
1164 1451 1455 28
1165 1456 1457 28
1166 1456 1458 28
1167 1456 1459 28
1168 1456 1460 28
1169 1461 1462 28
1170 1461 1463 28
1171 1461 1464 28
1172 1461 1465 28
1173 1466 1467 28
1174 1466 1468 28
1175 1466 1469 28
1176 1466 1470 28
1177 1471 1472 28
1178 1471 1473 28
1179 1471 1474 28
1180 1471 1475 28
1181 1476 1477 28
1182 1476 1478 28
1183 1476 1479 28
1184 1476 1480 28
1185 1481 1482 28
1186 1481 1483 28
1187 1481 1484 28
1188 1481 1485 28
1189 1486 1487 28
1190 1486 1488 28
1191 1486 1489 28
1192 1486 1490 28
1193 1491 1492 28
1194 1491 1493 28
1195 1491 1494 28
1196 1491 1495 28
1197 1496 1497 28
1198 1496 1498 28
1199 1496 1499 28
1200 1496 1500 28
1201 1501 1502 28
1202 1501 1503 28
1203 1501 1504 28
1204 1501 1505 28
1205 1506 1507 28
1206 1506 1508 28
1207 1506 1509 28
1208 1506 1510 28
1209 1511 1512 28
1210 1511 1513 28
1211 1511 1514 28
1212 1511 1515 28
1213 1516 1517 28
1214 1516 1518 28
1215 1516 1519 28
1216 1516 1520 28
1217 1521 1522 28
1218 1521 1523 28
1219 1521 1524 28
1220 1521 1525 28
1221 1526 1527 28
1222 1526 1528 28
1223 1526 1529 28
1224 1526 1530 28
1225 1531 1532 28
1226 1531 1533 28
1227 1531 1534 28
1228 1531 1535 28
1229 1536 1537 28
1230 1536 1538 28
1231 1536 1539 28
1232 1536 1540 28
1233 1541 1542 28
1234 1541 1543 28
1235 1541 1544 28
1236 1541 1545 28
1237 1546 1547 28
1238 1546 1548 28
1239 1546 1549 28
1240 1546 1550 28
1241 1551 1552 28
1242 1551 1553 28
1243 1551 1554 28
1244 1551 1555 28
1245 1556 1557 28
1246 1556 1558 28
1247 1556 1559 28
1248 1556 1560 28
1249 1561 1562 28
1250 1561 1563 28
1251 1561 1564 28
1252 1561 1565 28
1253 1566 1567 28
1254 1566 1568 28
1255 1566 1569 28
1256 1566 1570 28
1257 1571 1572 28
1258 1571 1573 28
1259 1571 1574 28
1260 1571 1575 28
1261 1576 1577 28
1262 1576 1578 28
1263 1576 1579 28
1264 1576 1580 28
1265 1581 1582 28
1266 1581 1583 28
1267 1581 1584 28
1268 1581 1585 28
1269 1586 1587 28
1270 1586 1588 28
1271 1586 1589 28
1272 1586 1590 28
1273 1591 1592 28
1274 1591 1593 28
1275 1591 1594 28
1276 1591 1595 28
1277 1596 1597 28
1278 1596 1598 28
1279 1596 1599 28
1280 1596 1600 28
1281 1601 1602 28
1282 1601 1603 28
1283 1601 1604 28
1284 1601 1605 28
1285 1606 1607 28
1286 1606 1608 28
1287 1606 1609 28
1288 1606 1610 28
1289 1611 1612 28
1290 1611 1613 28
1291 1611 1614 28
1292 1611 1615 28
1293 1616 1617 28
1294 1616 1618 28
1295 1616 1619 28
1296 1616 1620 28
1297 1621 1622 28
1298 1621 1623 28
1299 1621 1624 28
1300 1621 1625 28
1301 1626 1627 28
1302 1626 1628 28
1303 1626 1629 28
1304 1626 1630 28
1305 1631 1632 28
1306 1631 1633 28
1307 1631 1634 28
1308 1631 1635 28
1309 1636 1637 28
1310 1636 1638 28
1311 1636 1639 28
1312 1636 1640 28
1313 1641 1642 28
1314 1641 1643 28
1315 1641 1644 28
1316 1641 1645 28
1317 1646 1647 28
1318 1646 1648 28
1319 1646 1649 28
1320 1646 1650 28
1321 1651 1652 28
1322 1651 1653 28
1323 1651 1654 28
1324 1651 1655 28
1325 1656 1657 28
1326 1656 1658 28
1327 1656 1659 28
1328 1656 1660 28
1329 1661 1662 28
1330 1661 1663 28
1331 1661 1664 28
1332 1661 1665 28
1333 1666 1667 28
1334 1666 1668 28
1335 1666 1669 28
1336 1666 1670 28
1337 1671 1672 28
1338 1671 1673 28
1339 1671 1674 28
1340 1671 1675 28
1341 1676 1677 28
1342 1676 1678 28
1343 1676 1679 28
1344 1676 1680 28
1345 1681 1682 28
1346 1681 1683 28
1347 1681 1684 28
1348 1681 1685 28
1349 1686 1687 28
1350 1686 1688 28
1351 1686 1689 28
1352 1686 1690 28
1353 1691 1692 28
1354 1691 1693 28
1355 1691 1694 28
1356 1691 1695 28
1357 1696 1697 28
1358 1696 1698 28
1359 1696 1699 28
1360 1696 1700 28
1361 1701 1702 28
1362 1701 1703 28
1363 1701 1704 28
1364 1701 1705 28
1365 1706 1707 28
1366 1706 1708 28
1367 1706 1709 28
1368 1706 1710 28
1369 1711 1712 28
1370 1711 1713 28
1371 1711 1714 28
1372 1711 1715 28
1373 1716 1717 28
1374 1716 1718 28
1375 1716 1719 28
1376 1716 1720 28
1377 1721 1722 28
1378 1721 1723 28
1379 1721 1724 28
1380 1721 1725 28
1381 1726 1727 28
1382 1726 1728 28
1383 1726 1729 28
1384 1726 1730 28
1385 1731 1732 28
1386 1731 1733 28
1387 1731 1734 28
1388 1731 1735 28
1389 1736 1737 28
1390 1736 1738 28
1391 1736 1739 28
1392 1736 1740 28
1393 1741 1742 28
1394 1741 1743 28
1395 1741 1744 28
1396 1741 1745 28
1397 1746 1747 28
1398 1746 1748 28
1399 1746 1749 28
1400 1746 1750 28
1401 1751 1752 28
1402 1751 1753 28
1403 1751 1754 28
1404 1751 1755 28
1405 1756 1757 28
1406 1756 1758 28
1407 1756 1759 28
1408 1756 1760 28
1409 1761 1762 28
1410 1761 1763 28
1411 1761 1764 28
1412 1761 1765 28
1413 1766 1767 28
1414 1766 1768 28
1415 1766 1769 28
1416 1766 1770 28
1417 1771 1772 28
1418 1771 1773 28
1419 1771 1774 28
1420 1771 1775 28
1421 1776 1777 28
1422 1776 1778 28
1423 1776 1779 28
1424 1776 1780 28
1425 1781 1782 28
1426 1781 1783 28
1427 1781 1784 28
1428 1781 1785 28
1429 1786 1787 28
1430 1786 1788 28
1431 1786 1789 28
1432 1786 1790 28
1433 1791 1792 28
1434 1791 1793 28
1435 1791 1794 28
1436 1791 1795 28
1437 1796 1797 28
1438 1796 1798 28
1439 1796 1799 28
1440 1796 1800 28
1441 1801 1802 28
1442 1801 1803 28
1443 1801 1804 28
1444 1801 1805 28
1445 1806 1807 28
1446 1806 1808 28
1447 1806 1809 28
1448 1806 1810 28
1449 1811 1812 28
1450 1811 1813 28
1451 1811 1814 28
1452 1811 1815 28
1453 1816 1817 28
1454 1816 1818 28
1455 1816 1819 28
1456 1816 1820 28
1457 1821 1822 28
1458 1821 1823 28
1459 1821 1824 28
1460 1821 1825 28
1461 1826 1827 28
1462 1826 1828 28
1463 1826 1829 28
1464 1826 1830 28
1465 1831 1832 28
1466 1831 1833 28
1467 1831 1834 28
1468 1831 1835 28
1469 1836 1837 28
1470 1836 1838 28
1471 1836 1839 28
1472 1836 1840 28
1473 1841 1842 28
1474 1841 1843 28
1475 1841 1844 28
1476 1841 1845 28
1477 1846 1847 28
1478 1846 1848 28
1479 1846 1849 28
1480 1846 1850 28
1481 1851 1852 28
1482 1851 1853 28
1483 1851 1854 28
1484 1851 1855 28
1485 1856 1857 28
1486 1856 1858 28
1487 1856 1859 28
1488 1856 1860 28
1489 1861 1862 28
1490 1861 1863 28
1491 1861 1864 28
1492 1861 1865 28
1493 1866 1867 28
1494 1866 1868 28
1495 1866 1869 28
1496 1866 1870 28
1497 1871 1872 28
1498 1871 1873 28
1499 1871 1874 28
1500 1871 1875 28
1501 1876 1877 28
1502 1876 1878 28
1503 1876 1879 28
1504 1876 1880 28
1505 1881 1882 28
1506 1881 1883 28
1507 1881 1884 28
1508 1881 1885 28
1509 1886 1887 28
1510 1886 1888 28
1511 1886 1889 28
1512 1886 1890 28
1513 1891 1892 28
1514 1891 1893 28
1515 1891 1894 28
1516 1891 1895 28
1517 1896 1897 28
1518 1896 1898 28
1519 1896 1899 28
1520 1896 1900 28
1521 1901 1902 28
1522 1901 1903 28
1523 1901 1904 28
1524 1901 1905 28
1525 1906 1907 28
1526 1906 1908 28
1527 1906 1909 28
1528 1906 1910 28
1529 1911 1912 28
1530 1911 1913 28
1531 1911 1914 28
1532 1911 1915 28
1533 1916 1917 28
1534 1916 1918 28
1535 1916 1919 28
1536 1916 1920 28
1537 1921 1922 28
1538 1921 1923 28
1539 1921 1924 28
1540 1921 1925 28
1541 1926 1927 28
1542 1926 1928 28
1543 1926 1929 28
1544 1926 1930 28
1545 1931 1932 28
1546 1931 1933 28
1547 1931 1934 28
1548 1931 1935 28
1549 1936 1937 28
1550 1936 1938 28
1551 1936 1939 28
1552 1936 1940 28
1553 1941 1942 28
1554 1941 1943 28
1555 1941 1944 28
1556 1941 1945 28
1557 1946 1947 28
1558 1946 1948 28
1559 1946 1949 28
1560 1946 1950 28
1561 1951 1952 28
1562 1951 1953 28
1563 1951 1954 28
1564 1951 1955 28
1565 1956 1957 28
1566 1956 1958 28
1567 1956 1959 28
1568 1956 1960 28
1569 1961 1962 28
1570 1961 1963 28
1571 1961 1964 28
1572 1961 1965 28
1573 1966 1967 28
1574 1966 1968 28
1575 1966 1969 28
1576 1966 1970 28
1577 1971 1972 28
1578 1971 1973 28
1579 1971 1974 28
1580 1971 1975 28
1581 1976 1977 28
1582 1976 1978 28
1583 1976 1979 28
1584 1976 1980 28
1585 1981 1982 28
1586 1981 1983 28
1587 1981 1984 28
1588 1981 1985 28
1589 1986 1987 28
1590 1986 1988 28
1591 1986 1989 28
1592 1986 1990 28
1593 1991 1992 28
1594 1991 1993 28
1595 1991 1994 28
1596 1991 1995 28
1597 1996 1997 28
1598 1996 1998 28
1599 1996 1999 28
1600 1996 2000 28
1601 2001 2002 28
1602 2001 2003 28
1603 2001 2004 28
1604 2001 2005 28
1605 2006 2007 28
1606 2006 2008 28
1607 2006 2009 28
1608 2006 2010 28
1609 2011 2012 28
1610 2011 2013 28
1611 2011 2014 28
1612 2011 2015 28
1613 2016 2017 28
1614 2016 2018 28
1615 2016 2019 28
1616 2016 2020 28
1617 2021 2022 28
1618 2021 2023 28
1619 2021 2024 28
1620 2021 2025 28
1621 2026 2027 28
1622 2026 2028 28
1623 2026 2029 28
1624 2026 2030 28
1625 2031 2032 28
1626 2031 2033 28
1627 2031 2034 28
1628 2031 2035 28
1629 2036 2037 28
1630 2036 2038 28
1631 2036 2039 28
1632 2036 2040 28
1633 2041 2042 28
1634 2041 2043 28
1635 2041 2044 28
1636 2041 2045 28
1637 2046 2047 28
1638 2046 2048 28
1639 2046 2049 28
1640 2046 2050 28
1641 2051 2052 28
1642 2051 2053 28
1643 2051 2054 28
1644 2051 2055 28
1645 2056 2057 28
1646 2056 2058 28
1647 2056 2059 28
1648 2056 2060 28
1649 2061 2062 28
1650 2061 2063 28
1651 2061 2064 28
1652 2061 2065 28
1653 2066 2067 28
1654 2066 2068 28
1655 2066 2069 28
1656 2066 2070 28
1657 2071 2072 28
1658 2071 2073 28
1659 2071 2074 28
1660 2071 2075 28
1661 2076 2077 28
1662 2076 2078 28
1663 2076 2079 28
1664 2076 2080 28
1665 2081 2082 28
1666 2081 2083 28
1667 2081 2084 28
1668 2081 2085 28
1669 2086 2087 28
1670 2086 2088 28
1671 2086 2089 28
1672 2086 2090 28
1673 2091 2092 28
1674 2091 2093 28
1675 2091 2094 28
1676 2091 2095 28
1677 2096 2097 28
1678 2096 2098 28
1679 2096 2099 28
1680 2096 2100 28
1681 2101 2102 28
1682 2101 2103 28
1683 2101 2104 28
1684 2101 2105 28
1685 2106 2107 28
1686 2106 2108 28
1687 2106 2109 28
1688 2106 2110 28
1689 2111 2112 28
1690 2111 2113 28
1691 2111 2114 28
1692 2111 2115 28
1693 2116 2117 28
1694 2116 2118 28
1695 2116 2119 28
1696 2116 2120 28
1697 2121 2122 28
1698 2121 2123 28
1699 2121 2124 28
1700 2121 2125 28
1701 2126 2127 28
1702 2126 2128 28
1703 2126 2129 28
1704 2126 2130 28
1705 2131 2132 28
1706 2131 2133 28
1707 2131 2134 28
1708 2131 2135 28
1709 2136 2137 28
1710 2136 2138 28
1711 2136 2139 28
1712 2136 2140 28
1713 2141 2142 28
1714 2141 2143 28
1715 2141 2144 28
1716 2141 2145 28
1717 2146 2147 28
1718 2146 2148 28
1719 2146 2149 28
1720 2146 2150 28
1721 2151 2152 28
1722 2151 2153 28
1723 2151 2154 28
1724 2151 2155 28
1725 2156 2157 28
1726 2156 2158 28
1727 2156 2159 28
1728 2156 2160 28
1729 2161 2162 28
1730 2161 2163 28
1731 2161 2164 28
1732 2161 2165 28
1733 2166 2167 28
1734 2166 2168 28
1735 2166 2169 28
1736 2166 2170 28
1737 2171 2172 28
1738 2171 2173 28
1739 2171 2174 28
1740 2171 2175 28
1741 2176 2177 28
1742 2176 2178 28
1743 2176 2179 28
1744 2176 2180 28
1745 2181 2182 28
1746 2181 2183 28
1747 2181 2184 28
1748 2181 2185 28
1749 2186 2187 28
1750 2186 2188 28
1751 2186 2189 28
1752 2186 2190 28
1753 2191 2192 28
1754 2191 2193 28
1755 2191 2194 28
1756 2191 2195 28
1757 2196 2197 28
1758 2196 2198 28
1759 2196 2199 28
1760 2196 2200 28
1761 2201 2202 28
1762 2201 2203 28
1763 2201 2204 28
1764 2201 2205 28
1765 2206 2207 28
1766 2206 2208 28
1767 2206 2209 28
1768 2206 2210 28
1769 2211 2212 28
1770 2211 2213 28
1771 2211 2214 28
1772 2211 2215 28
1773 2216 2217 28
1774 2216 2218 28
1775 2216 2219 28
1776 2216 2220 28
1777 2221 2222 28
1778 2221 2223 28
1779 2221 2224 28
1780 2221 2225 28
1781 2226 2227 28
1782 2226 2228 28
1783 2226 2229 28
1784 2226 2230 28
1785 2231 2232 28
1786 2231 2233 28
1787 2231 2234 28
1788 2231 2235 28
1789 2236 2237 28
1790 2236 2238 28
1791 2236 2239 28
1792 2236 2240 28
1793 2241 2242 28
1794 2241 2243 28
1795 2241 2244 28
1796 2241 2245 28
1797 2246 2247 28
1798 2246 2248 28
1799 2246 2249 28
1800 2246 2250 28
1801 2251 2252 28
1802 2251 2253 28
1803 2251 2254 28
1804 2251 2255 28
1805 2256 2257 28
1806 2256 2258 28
1807 2256 2259 28
1808 2256 2260 28
1809 2261 2262 28
1810 2261 2263 28
1811 2261 2264 28
1812 2261 2265 28
1813 2266 2267 28
1814 2266 2268 28
1815 2266 2269 28
1816 2266 2270 28
1817 2271 2272 28
1818 2271 2273 28
1819 2271 2274 28
1820 2271 2275 28
1821 2276 2277 28
1822 2276 2278 28
1823 2276 2279 28
1824 2276 2280 28
1825 2281 2282 28
1826 2281 2283 28
1827 2281 2284 28
1828 2281 2285 28
1829 2286 2287 28
1830 2286 2288 28
1831 2286 2289 28
1832 2286 2290 28
1833 2291 2292 28
1834 2291 2293 28
1835 2291 2294 28
1836 2291 2295 28
1837 2296 2297 28
1838 2296 2298 28
1839 2296 2299 28
1840 2296 2300 28
1841 2301 2302 28
1842 2301 2303 28
1843 2301 2304 28
1844 2301 2305 28
1845 2306 2307 28
1846 2306 2308 28
1847 2306 2309 28
1848 2306 2310 28
1849 2311 2312 28
1850 2311 2313 28
1851 2311 2314 28
1852 2311 2315 28
1853 2316 2317 28
1854 2316 2318 28
1855 2316 2319 28
1856 2316 2320 28
1857 2321 2322 28
1858 2321 2323 28
1859 2321 2324 28
1860 2321 2325 28
1861 2326 2327 28
1862 2326 2328 28
1863 2326 2329 28
1864 2326 2330 28
1865 2331 2332 28
1866 2331 2333 28
1867 2331 2334 28
1868 2331 2335 28
1869 2336 2337 28
1870 2336 2338 28
1871 2336 2339 28
1872 2336 2340 28
1873 2341 2342 28
1874 2341 2343 28
1875 2341 2344 28
1876 2341 2345 28
1877 2346 2347 28
1878 2346 2348 28
1879 2346 2349 28
1880 2346 2350 28
1881 2351 2352 28
1882 2351 2353 28
1883 2351 2354 28
1884 2351 2355 28
1885 2356 2357 28
1886 2356 2358 28
1887 2356 2359 28
1888 2356 2360 28
1889 2361 2362 28
1890 2361 2363 28
1891 2361 2364 28
1892 2361 2365 28
1893 2366 2367 28
1894 2366 2368 28
1895 2366 2369 28
1896 2366 2370 28
1897 2371 2372 28
1898 2371 2373 28
1899 2371 2374 28
1900 2371 2375 28
1901 2376 2377 28
1902 2376 2378 28
1903 2376 2379 28
1904 2376 2380 28
1905 2381 2382 28
1906 2381 2383 28
1907 2381 2384 28
1908 2381 2385 28
1909 2386 2387 28
1910 2386 2388 28
1911 2386 2389 28
1912 2386 2390 28
1913 2391 2392 28
1914 2391 2393 28
1915 2391 2394 28
1916 2391 2395 28
1917 2396 2397 28
1918 2396 2398 28
1919 2396 2399 28
1920 2396 2400 28
1921 2401 2402 28
1922 2401 2403 28
1923 2401 2404 28
1924 2401 2405 28
1925 2406 2407 28
1926 2406 2408 28
1927 2406 2409 28
1928 2406 2410 28
1929 2411 2412 28
1930 2411 2413 28
1931 2411 2414 28
1932 2411 2415 28
1933 2416 2417 28
1934 2416 2418 28
1935 2416 2419 28
1936 2416 2420 28
1937 2421 2422 28
1938 2421 2423 28
1939 2421 2424 28
1940 2421 2425 28
1941 2426 2427 28
1942 2426 2428 28
1943 2426 2429 28
1944 2426 2430 28
1945 2431 2432 28
1946 2431 2433 28
1947 2431 2434 28
1948 2431 2435 28
1949 2436 2437 28
1950 2436 2438 28
1951 2436 2439 28
1952 2436 2440 28
1953 2441 2442 28
1954 2441 2443 28
1955 2441 2444 28
1956 2441 2445 28
1957 2446 2447 28
1958 2446 2448 28
1959 2446 2449 28
1960 2446 2450 28
1961 2451 2452 28
1962 2451 2453 28
1963 2451 2454 28
1964 2451 2455 28
1965 2456 2457 28
1966 2456 2458 28
1967 2456 2459 28
1968 2456 2460 28
1969 2461 2462 28
1970 2461 2463 28
1971 2461 2464 28
1972 2461 2465 28
1973 2466 2467 28
1974 2466 2468 28
1975 2466 2469 28
1976 2466 2470 28
1977 2471 2472 28
1978 2471 2473 28
1979 2471 2474 28
1980 2471 2475 28
1981 2476 2477 28
1982 2476 2478 28
1983 2476 2479 28
1984 2476 2480 28
1985 2481 2482 28
1986 2481 2483 28
1987 2481 2484 28
1988 2481 2485 28
1989 2486 2487 28
1990 2486 2488 28
1991 2486 2489 28
1992 2486 2490 28
1993 2491 2492 28
1994 2491 2493 28
1995 2491 2494 28
1996 2491 2495 28
1997 2496 2497 28
1998 2496 2498 28
1999 2496 2499 28
2000 2496 2500 28
2001 2501 2502 28
2002 2501 2503 28
2003 2501 2504 28
2004 2501 2505 28
2005 2506 2507 28
2006 2506 2508 28
2007 2506 2509 28
2008 2506 2510 28
2009 2511 2512 28
2010 2511 2513 28
2011 2511 2514 28
2012 2511 2515 28
2013 2516 2517 28
2014 2516 2518 28
2015 2516 2519 28
2016 2516 2520 28
2017 2521 2522 28
2018 2521 2523 28
2019 2521 2524 28
2020 2521 2525 28
2021 2526 2527 28
2022 2526 2528 28
2023 2526 2529 28
2024 2526 2530 28
2025 2531 2532 28
2026 2531 2533 28
2027 2531 2534 28
2028 2531 2535 28
2029 2536 2537 28
2030 2536 2538 28
2031 2536 2539 28
2032 2536 2540 28
2033 2541 2542 28
2034 2541 2543 28
2035 2541 2544 28
2036 2541 2545 28
2037 2546 2547 28
2038 2546 2548 28
2039 2546 2549 28
2040 2546 2550 28
2041 2551 2552 28
2042 2551 2553 28
2043 2551 2554 28
2044 2551 2555 28
2045 2556 2557 28
2046 2556 2558 28
2047 2556 2559 28
2048 2556 2560 28
2049 2561 2562 28
2050 2561 2563 28
2051 2561 2564 28
2052 2561 2565 28
2053 2566 2567 28
2054 2566 2568 28
2055 2566 2569 28
2056 2566 2570 28
2057 2571 2572 28
2058 2571 2573 28
2059 2571 2574 28
2060 2571 2575 28
2061 2576 2577 28
2062 2576 2578 28
2063 2576 2579 28
2064 2576 2580 28
2065 2581 2582 28
2066 2581 2583 28
2067 2581 2584 28
2068 2581 2585 28
2069 2586 2587 28
2070 2586 2588 28
2071 2586 2589 28
2072 2586 2590 28
2073 2591 2592 28
2074 2591 2593 28
2075 2591 2594 28
2076 2591 2595 28
2077 2596 2597 28
2078 2596 2598 28
2079 2596 2599 28
2080 2596 2600 28
2081 2601 2602 28
2082 2601 2603 28
2083 2601 2604 28
2084 2601 2605 28
2085 2606 2607 28
2086 2606 2608 28
2087 2606 2609 28
2088 2606 2610 28
2089 2611 2612 28
2090 2611 2613 28
2091 2611 2614 28
2092 2611 2615 28
2093 2616 2617 28
2094 2616 2618 28
2095 2616 2619 28
2096 2616 2620 28
2097 2621 2622 28
2098 2621 2623 28
2099 2621 2624 28
2100 2621 2625 28
2101 2626 2627 28
2102 2626 2628 28
2103 2626 2629 28
2104 2626 2630 28
2105 2631 2632 28
2106 2631 2633 28
2107 2631 2634 28
2108 2631 2635 28
2109 2636 2637 28
2110 2636 2638 28
2111 2636 2639 28
2112 2636 2640 28
2113 2641 2642 28
2114 2641 2643 28
2115 2641 2644 28
2116 2641 2645 28
2117 2646 2647 28
2118 2646 2648 28
2119 2646 2649 28
2120 2646 2650 28
2121 2651 2652 28
2122 2651 2653 28
2123 2651 2654 28
2124 2651 2655 28
2125 2656 2657 28
2126 2656 2658 28
2127 2656 2659 28
2128 2656 2660 28
2129 2661 2662 28
2130 2661 2663 28
2131 2661 2664 28
2132 2661 2665 28
2133 2666 2667 28
2134 2666 2668 28
2135 2666 2669 28
2136 2666 2670 28
2137 2671 2672 28
2138 2671 2673 28
2139 2671 2674 28
2140 2671 2675 28
2141 2676 2677 28
2142 2676 2678 28
2143 2676 2679 28
2144 2676 2680 28
2145 2681 2682 28
2146 2681 2683 28
2147 2681 2684 28
2148 2681 2685 28
2149 2686 2687 28
2150 2686 2688 28
2151 2686 2689 28
2152 2686 2690 28
2153 2691 2692 28
2154 2691 2693 28
2155 2691 2694 28
2156 2691 2695 28
2157 2696 2697 28
2158 2696 2698 28
2159 2696 2699 28
2160 2696 2700 28
2161 2701 2702 28
2162 2701 2703 28
2163 2701 2704 28
2164 2701 2705 28
2165 2706 2707 28
2166 2706 2708 28
2167 2706 2709 28
2168 2706 2710 28
2169 2711 2712 28
2170 2711 2713 28
2171 2711 2714 28
2172 2711 2715 28
2173 2716 2717 28
2174 2716 2718 28
2175 2716 2719 28
2176 2716 2720 28
2177 2721 2722 28
2178 2721 2723 28
2179 2721 2724 28
2180 2721 2725 28
2181 2726 2727 28
2182 2726 2728 28
2183 2726 2729 28
2184 2726 2730 28
2185 2731 2732 28
2186 2731 2733 28
2187 2731 2734 28
2188 2731 2735 28
2189 2736 2737 28
2190 2736 2738 28
2191 2736 2739 28
2192 2736 2740 28
2193 2741 2742 28
2194 2741 2743 28
2195 2741 2744 28
2196 2741 2745 28
2197 2746 2747 28
2198 2746 2748 28
2199 2746 2749 28
2200 2746 2750 28
2201 2751 2752 28
2202 2751 2753 28
2203 2751 2754 28
2204 2751 2755 28
2205 2756 2757 28
2206 2756 2758 28
2207 2756 2759 28
2208 2756 2760 28
2209 2761 2762 28
2210 2761 2763 28
2211 2761 2764 28
2212 2761 2765 28
2213 2766 2767 28
2214 2766 2768 28
2215 2766 2769 28
2216 2766 2770 28
2217 2771 2772 28
2218 2771 2773 28
2219 2771 2774 28
2220 2771 2775 28
2221 2776 2777 28
2222 2776 2778 28
2223 2776 2779 28
2224 2776 2780 28
2225 2781 2782 28
2226 2781 2783 28
2227 2781 2784 28
2228 2781 2785 28
2229 2786 2787 28
2230 2786 2788 28
2231 2786 2789 28
2232 2786 2790 28
2233 2791 2792 28
2234 2791 2793 28
2235 2791 2794 28
2236 2791 2795 28
2237 2796 2797 28
2238 2796 2798 28
2239 2796 2799 28
2240 2796 2800 28
2241 2801 2802 28
2242 2801 2803 28
2243 2801 2804 28
2244 2801 2805 28
2245 2806 2807 28
2246 2806 2808 28
2247 2806 2809 28
2248 2806 2810 28
2249 2811 2812 28
2250 2811 2813 28
2251 2811 2814 28
2252 2811 2815 28
2253 2816 2817 28
2254 2816 2818 28
2255 2816 2819 28
2256 2816 2820 28
2257 2821 2822 28
2258 2821 2823 28
2259 2821 2824 28
2260 2821 2825 28
2261 2826 2827 28
2262 2826 2828 28
2263 2826 2829 28
2264 2826 2830 28
2265 2831 2832 28
2266 2831 2833 28
2267 2831 2834 28
2268 2831 2835 28
2269 2836 2837 28
2270 2836 2838 28
2271 2836 2839 28
2272 2836 2840 28
2273 2841 2842 28
2274 2841 2843 28
2275 2841 2844 28
2276 2841 2845 28
2277 2846 2847 28
2278 2846 2848 28
2279 2846 2849 28
2280 2846 2850 28
2281 2851 2852 28
2282 2851 2853 28
2283 2851 2854 28
2284 2851 2855 28
2285 2856 2857 28
2286 2856 2858 28
2287 2856 2859 28
2288 2856 2860 28
2289 2861 2862 28
2290 2861 2863 28
2291 2861 2864 28
2292 2861 2865 28
2293 2866 2867 28
2294 2866 2868 28
2295 2866 2869 28
2296 2866 2870 28
2297 2871 2872 28
2298 2871 2873 28
2299 2871 2874 28
2300 2871 2875 28
2301 2876 2877 28
2302 2876 2878 28
2303 2876 2879 28
2304 2876 2880 28
2305 2881 2882 28
2306 2881 2883 28
2307 2881 2884 28
2308 2881 2885 28
2309 2886 2887 28
2310 2886 2888 28
2311 2886 2889 28
2312 2886 2890 28
2313 2891 2892 28
2314 2891 2893 28
2315 2891 2894 28
2316 2891 2895 28
2317 2896 2897 28
2318 2896 2898 28
2319 2896 2899 28
2320 2896 2900 28
2321 2901 2902 28
2322 2901 2903 28
2323 2901 2904 28
2324 2901 2905 28
2325 2906 2907 28
2326 2906 2908 28
2327 2906 2909 28
2328 2906 2910 28
2329 2911 2912 28
2330 2911 2913 28
2331 2911 2914 28
2332 2911 2915 28
2333 2916 2917 28
2334 2916 2918 28
2335 2916 2919 28
2336 2916 2920 28
2337 2921 2922 28
2338 2921 2923 28
2339 2921 2924 28
2340 2921 2925 28
2341 2926 2927 28
2342 2926 2928 28
2343 2926 2929 28
2344 2926 2930 28
2345 2931 2932 28
2346 2931 2933 28
2347 2931 2934 28
2348 2931 2935 28
2349 2936 2937 28
2350 2936 2938 28
2351 2936 2939 28
2352 2936 2940 28
2353 2941 2942 28
2354 2941 2943 28
2355 2941 2944 28
2356 2941 2945 28
2357 2946 2947 28
2358 2946 2948 28
2359 2946 2949 28
2360 2946 2950 28
2361 2951 2952 28
2362 2951 2953 28
2363 2951 2954 28
2364 2951 2955 28
2365 2956 2957 28
2366 2956 2958 28
2367 2956 2959 28
2368 2956 2960 28
2369 2961 2962 28
2370 2961 2963 28
2371 2961 2964 28
2372 2961 2965 28
2373 2966 2967 28
2374 2966 2968 28
2375 2966 2969 28
2376 2966 2970 28
2377 2971 2972 28
2378 2971 2973 28
2379 2971 2974 28
2380 2971 2975 28
2381 2976 2977 28
2382 2976 2978 28
2383 2976 2979 28
2384 2976 2980 28
2385 2981 2982 28
2386 2981 2983 28
2387 2981 2984 28
2388 2981 2985 28
2389 2986 2987 28
2390 2986 2988 28
2391 2986 2989 28
2392 2986 2990 28
2393 2991 2992 28
2394 2991 2993 28
2395 2991 2994 28
2396 2991 2995 28
2397 2996 2997 28
2398 2996 2998 28
2399 2996 2999 28
2400 2996 3000 28
2401 3001 3002 28
2402 3001 3003 28
2403 3001 3004 28
2404 3001 3005 28
2405 3006 3007 28
2406 3006 3008 28
2407 3006 3009 28
2408 3006 3010 28
2409 3011 3012 28
2410 3011 3013 28
2411 3011 3014 28
2412 3011 3015 28
2413 3016 3017 28
2414 3016 3018 28
2415 3016 3019 28
2416 3016 3020 28
2417 3021 3022 28
2418 3021 3023 28
2419 3021 3024 28
2420 3021 3025 28
2421 3026 3027 28
2422 3026 3028 28
2423 3026 3029 28
2424 3026 3030 28
2425 3031 3032 28
2426 3031 3033 28
2427 3031 3034 28
2428 3031 3035 28
2429 3036 3037 28
2430 3036 3038 28
2431 3036 3039 28
2432 3036 3040 28
2433 3041 3042 28
2434 3041 3043 28
2435 3041 3044 28
2436 3041 3045 28
2437 3046 3047 28
2438 3046 3048 28
2439 3046 3049 28
2440 3046 3050 28
2441 3051 3052 28
2442 3051 3053 28
2443 3051 3054 28
2444 3051 3055 28
2445 3056 3057 28
2446 3056 3058 28
2447 3056 3059 28
2448 3056 3060 28
2449 3061 3062 28
2450 3061 3063 28
2451 3061 3064 28
2452 3061 3065 28
2453 3066 3067 28
2454 3066 3068 28
2455 3066 3069 28
2456 3066 3070 28
2457 3071 3072 28
2458 3071 3073 28
2459 3071 3074 28
2460 3071 3075 28
2461 3076 3077 28
2462 3076 3078 28
2463 3076 3079 28
2464 3076 3080 28
2465 3081 3082 28
2466 3081 3083 28
2467 3081 3084 28
2468 3081 3085 28
2469 3086 3087 28
2470 3086 3088 28
2471 3086 3089 28
2472 3086 3090 28
2473 3091 3092 28
2474 3091 3093 28
2475 3091 3094 28
2476 3091 3095 28
2477 3096 3097 28
2478 3096 3098 28
2479 3096 3099 28
2480 3096 3100 28
2481 3101 3102 28
2482 3101 3103 28
2483 3101 3104 28
2484 3101 3105 28
2485 3106 3107 28
2486 3106 3108 28
2487 3106 3109 28
2488 3106 3110 28
2489 3111 3112 28
2490 3111 3113 28
2491 3111 3114 28
2492 3111 3115 28
2493 3116 3117 28
2494 3116 3118 28
2495 3116 3119 28
2496 3116 3120 28
2497 3121 3122 28
2498 3121 3123 28
2499 3121 3124 28
2500 3121 3125 28
2501 3126 3127 28
2502 3126 3128 28
2503 3126 3129 28
2504 3126 3130 28
2505 3131 3132 28
2506 3131 3133 28
2507 3131 3134 28
2508 3131 3135 28
2509 3136 3137 28
2510 3136 3138 28
2511 3136 3139 28
2512 3136 3140 28
2513 3141 3142 28
2514 3141 3143 28
2515 3141 3144 28
2516 3141 3145 28
2517 3146 3147 28
2518 3146 3148 28
2519 3146 3149 28
2520 3146 3150 28
2521 3151 3152 28
2522 3151 3153 28
2523 3151 3154 28
2524 3151 3155 28
2525 3156 3157 28
2526 3156 3158 28
2527 3156 3159 28
2528 3156 3160 28
2529 3161 3162 28
2530 3161 3163 28
2531 3161 3164 28
2532 3161 3165 28
2533 3166 3167 28
2534 3166 3168 28
2535 3166 3169 28
2536 3166 3170 28
2537 3171 3172 28
2538 3171 3173 28
2539 3171 3174 28
2540 3171 3175 28
2541 3176 3177 28
2542 3176 3178 28
2543 3176 3179 28
2544 3176 3180 28
2545 3181 3182 28
2546 3181 3183 28
2547 3181 3184 28
2548 3181 3185 28
2549 3186 3187 28
2550 3186 3188 28
2551 3186 3189 28
2552 3186 3190 28
2553 3191 3192 28
2554 3191 3193 28
2555 3191 3194 28
2556 3191 3195 28
2557 3196 3197 28
2558 3196 3198 28
2559 3196 3199 28
2560 3196 3200 28
2561 3201 3202 28
2562 3201 3203 28
2563 3201 3204 28
2564 3201 3205 28
2565 3206 3207 28
2566 3206 3208 28
2567 3206 3209 28
2568 3206 3210 28
2569 3211 3212 28
2570 3211 3213 28
2571 3211 3214 28
2572 3211 3215 28
2573 3216 3217 28
2574 3216 3218 28
2575 3216 3219 28
2576 3216 3220 28
2577 3221 3222 28
2578 3221 3223 28
2579 3221 3224 28
2580 3221 3225 28
2581 3226 3227 28
2582 3226 3228 28
2583 3226 3229 28
2584 3226 3230 28
2585 3231 3232 28
2586 3231 3233 28
2587 3231 3234 28
2588 3231 3235 28
2589 3236 3237 28
2590 3236 3238 28
2591 3236 3239 28
2592 3236 3240 28
2593 3241 3242 28
2594 3241 3243 28
2595 3241 3244 28
2596 3241 3245 28
2597 3246 3247 28
2598 3246 3248 28
2599 3246 3249 28
2600 3246 3250 28
2601 3251 3252 28
2602 3251 3253 28
2603 3251 3254 28
2604 3251 3255 28
2605 3256 3257 28
2606 3256 3258 28
2607 3256 3259 28
2608 3256 3260 28
2609 3261 3262 28
2610 3261 3263 28
2611 3261 3264 28
2612 3261 3265 28
2613 3266 3267 28
2614 3266 3268 28
2615 3266 3269 28
2616 3266 3270 28
2617 3271 3272 28
2618 3271 3273 28
2619 3271 3274 28
2620 3271 3275 28
2621 3276 3277 28
2622 3276 3278 28
2623 3276 3279 28
2624 3276 3280 28
2625 3281 3282 28
2626 3281 3283 28
2627 3281 3284 28
2628 3281 3285 28
2629 3286 3287 28
2630 3286 3288 28
2631 3286 3289 28
2632 3286 3290 28
2633 3291 3292 28
2634 3291 3293 28
2635 3291 3294 28
2636 3291 3295 28
2637 3296 3297 28
2638 3296 3298 28
2639 3296 3299 28
2640 3296 3300 28
2641 3301 3302 28
2642 3301 3303 28
2643 3301 3304 28
2644 3301 3305 28
2645 3306 3307 28
2646 3306 3308 28
2647 3306 3309 28
2648 3306 3310 28
2649 3311 3312 28
2650 3311 3313 28
2651 3311 3314 28
2652 3311 3315 28
2653 3316 3317 28
2654 3316 3318 28
2655 3316 3319 28
2656 3316 3320 28
2657 3321 3322 28
2658 3321 3323 28
2659 3321 3324 28
2660 3321 3325 28
2661 3326 3327 28
2662 3326 3328 28
2663 3326 3329 28
2664 3326 3330 28
2665 3331 3332 28
2666 3331 3333 28
2667 3331 3334 28
2668 3331 3335 28
2669 3336 3337 28
2670 3336 3338 28
2671 3336 3339 28
2672 3336 3340 28
2673 3341 3342 28
2674 3341 3343 28
2675 3341 3344 28
2676 3341 3345 28
2677 3346 3347 28
2678 3346 3348 28
2679 3346 3349 28
2680 3346 3350 28
2681 3351 3352 28
2682 3351 3353 28
2683 3351 3354 28
2684 3351 3355 28
2685 3356 3357 28
2686 3356 3358 28
2687 3356 3359 28
2688 3356 3360 28
2689 3361 3362 28
2690 3361 3363 28
2691 3361 3364 28
2692 3361 3365 28
2693 3366 3367 28
2694 3366 3368 28
2695 3366 3369 28
2696 3366 3370 28
2697 3371 3372 28
2698 3371 3373 28
2699 3371 3374 28
2700 3371 3375 28
2701 3376 3377 28
2702 3376 3378 28
2703 3376 3379 28
2704 3376 3380 28
2705 3381 3382 28
2706 3381 3383 28
2707 3381 3384 28
2708 3381 3385 28
2709 3386 3387 28
2710 3386 3388 28
2711 3386 3389 28
2712 3386 3390 28
2713 3391 3392 28
2714 3391 3393 28
2715 3391 3394 28
2716 3391 3395 28
2717 3396 3397 28
2718 3396 3398 28
2719 3396 3399 28
2720 3396 3400 28
2721 3401 3402 28
2722 3401 3403 28
2723 3401 3404 28
2724 3401 3405 28
2725 3406 3407 28
2726 3406 3408 28
2727 3406 3409 28
2728 3406 3410 28
2729 3411 3412 28
2730 3411 3413 28
2731 3411 3414 28
2732 3411 3415 28
2733 3416 3417 28
2734 3416 3418 28
2735 3416 3419 28
2736 3416 3420 28
2737 3421 3422 28
2738 3421 3423 28
2739 3421 3424 28
2740 3421 3425 28
2741 3426 3427 28
2742 3426 3428 28
2743 3426 3429 28
2744 3426 3430 28
2745 3431 3432 28
2746 3431 3433 28
2747 3431 3434 28
2748 3431 3435 28
2749 3436 3437 28
2750 3436 3438 28
2751 3436 3439 28
2752 3436 3440 28
2753 3441 3442 28
2754 3441 3443 28
2755 3441 3444 28
2756 3441 3445 28
2757 3446 3447 28
2758 3446 3448 28
2759 3446 3449 28
2760 3446 3450 28
2761 3451 3452 28
2762 3451 3453 28
2763 3451 3454 28
2764 3451 3455 28
2765 3456 3457 28
2766 3456 3458 28
2767 3456 3459 28
2768 3456 3460 28
2769 3461 3462 28
2770 3461 3463 28
2771 3461 3464 28
2772 3461 3465 28
2773 3466 3467 28
2774 3466 3468 28
2775 3466 3469 28
2776 3466 3470 28
2777 3471 3472 28
2778 3471 3473 28
2779 3471 3474 28
2780 3471 3475 28
2781 3476 3477 28
2782 3476 3478 28
2783 3476 3479 28
2784 3476 3480 28
2785 3481 3482 28
2786 3481 3483 28
2787 3481 3484 28
2788 3481 3485 28
2789 3486 3487 28
2790 3486 3488 28
2791 3486 3489 28
2792 3486 3490 28
2793 3491 3492 28
2794 3491 3493 28
2795 3491 3494 28
2796 3491 3495 28
2797 3496 3497 28
2798 3496 3498 28
2799 3496 3499 28
2800 3496 3500 28
2801 3501 3502 28
2802 3501 3503 28
2803 3501 3504 28
2804 3501 3505 28
2805 3506 3507 28
2806 3506 3508 28
2807 3506 3509 28
2808 3506 3510 28
2809 3511 3512 28
2810 3511 3513 28
2811 3511 3514 28
2812 3511 3515 28
2813 3516 3517 28
2814 3516 3518 28
2815 3516 3519 28
2816 3516 3520 28
2817 3521 3522 28
2818 3521 3523 28
2819 3521 3524 28
2820 3521 3525 28
2821 3526 3527 28
2822 3526 3528 28
2823 3526 3529 28
2824 3526 3530 28
2825 3531 3532 28
2826 3531 3533 28
2827 3531 3534 28
2828 3531 3535 28
2829 3536 3537 28
2830 3536 3538 28
2831 3536 3539 28
2832 3536 3540 28
2833 3541 3542 28
2834 3541 3543 28
2835 3541 3544 28
2836 3541 3545 28
2837 3546 3547 28
2838 3546 3548 28
2839 3546 3549 28
2840 3546 3550 28
2841 3551 3552 28
2842 3551 3553 28
2843 3551 3554 28
2844 3551 3555 28
2845 3556 3557 28
2846 3556 3558 28
2847 3556 3559 28
2848 3556 3560 28
2849 3561 3562 28
2850 3561 3563 28
2851 3561 3564 28
2852 3561 3565 28
2853 3566 3567 28
2854 3566 3568 28
2855 3566 3569 28
2856 3566 3570 28
2857 3571 3572 28
2858 3571 3573 28
2859 3571 3574 28
2860 3571 3575 28
2861 3576 3577 28
2862 3576 3578 28
2863 3576 3579 28
2864 3576 3580 28
2865 3581 3582 28
2866 3581 3583 28
2867 3581 3584 28
2868 3581 3585 28
2869 3586 3587 28
2870 3586 3588 28
2871 3586 3589 28
2872 3586 3590 28
2873 3591 3592 28
2874 3591 3593 28
2875 3591 3594 28
2876 3591 3595 28
2877 3596 3597 28
2878 3596 3598 28
2879 3596 3599 28
2880 3596 3600 28
2881 3601 3602 28
2882 3601 3603 28
2883 3601 3604 28
2884 3601 3605 28
2885 3606 3607 28
2886 3606 3608 28
2887 3606 3609 28
2888 3606 3610 28
2889 3611 3612 28
2890 3611 3613 28
2891 3611 3614 28
2892 3611 3615 28
2893 3616 3617 28
2894 3616 3618 28
2895 3616 3619 28
2896 3616 3620 28
2897 3621 3622 28
2898 3621 3623 28
2899 3621 3624 28
2900 3621 3625 28
2901 3626 3627 28
2902 3626 3628 28
2903 3626 3629 28
2904 3626 3630 28
2905 3631 3632 28
2906 3631 3633 28
2907 3631 3634 28
2908 3631 3635 28
2909 3636 3637 28
2910 3636 3638 28
2911 3636 3639 28
2912 3636 3640 28
2913 3641 3642 28
2914 3641 3643 28
2915 3641 3644 28
2916 3641 3645 28
2917 3646 3647 28
2918 3646 3648 28
2919 3646 3649 28
2920 3646 3650 28
2921 3651 3652 28
2922 3651 3653 28
2923 3651 3654 28
2924 3651 3655 28
2925 3656 3657 28
2926 3656 3658 28
2927 3656 3659 28
2928 3656 3660 28
2929 3661 3662 28
2930 3661 3663 28
2931 3661 3664 28
2932 3661 3665 28
2933 3666 3667 28
2934 3666 3668 28
2935 3666 3669 28
2936 3666 3670 28
2937 3671 3672 28
2938 3671 3673 28
2939 3671 3674 28
2940 3671 3675 28
2941 3676 3677 28
2942 3676 3678 28
2943 3676 3679 28
2944 3676 3680 28
2945 3681 3682 28
2946 3681 3683 28
2947 3681 3684 28
2948 3681 3685 28
2949 3686 3687 28
2950 3686 3688 28
2951 3686 3689 28
2952 3686 3690 28
2953 3691 3692 28
2954 3691 3693 28
2955 3691 3694 28
2956 3691 3695 28
2957 3696 3697 28
2958 3696 3698 28
2959 3696 3699 28
2960 3696 3700 28
2961 3701 3702 28
2962 3701 3703 28
2963 3701 3704 28
2964 3701 3705 28
2965 3706 3707 28
2966 3706 3708 28
2967 3706 3709 28
2968 3706 3710 28
2969 3711 3712 28
2970 3711 3713 28
2971 3711 3714 28
2972 3711 3715 28
2973 3716 3717 28
2974 3716 3718 28
2975 3716 3719 28
2976 3716 3720 28
2977 3721 3722 28
2978 3721 3723 28
2979 3721 3724 28
2980 3721 3725 28
2981 3726 3727 28
2982 3726 3728 28
2983 3726 3729 28
2984 3726 3730 28
2985 3731 3732 28
2986 3731 3733 28
2987 3731 3734 28
2988 3731 3735 28
2989 3736 3737 28
2990 3736 3738 28
2991 3736 3739 28
2992 3736 3740 28
2993 3741 3742 28
2994 3741 3743 28
2995 3741 3744 28
2996 3741 3745 28
2997 3746 3747 28
2998 3746 3748 28
2999 3746 3749 28
3000 3746 3750 28
3001 3751 3752 28
3002 3751 3753 28
3003 3751 3754 28
3004 3751 3755 28
3005 3756 3757 28
3006 3756 3758 28
3007 3756 3759 28
3008 3756 3760 28
3009 3761 3762 28
3010 3761 3763 28
3011 3761 3764 28
3012 3761 3765 28
3013 3766 3767 28
3014 3766 3768 28
3015 3766 3769 28
3016 3766 3770 28
3017 3771 3772 28
3018 3771 3773 28
3019 3771 3774 28
3020 3771 3775 28
3021 3776 3777 28
3022 3776 3778 28
3023 3776 3779 28
3024 3776 3780 28
3025 3781 3782 28
3026 3781 3783 28
3027 3781 3784 28
3028 3781 3785 28
3029 3786 3787 28
3030 3786 3788 28
3031 3786 3789 28
3032 3786 3790 28
3033 3791 3792 28
3034 3791 3793 28
3035 3791 3794 28
3036 3791 3795 28
3037 3796 3797 28
3038 3796 3798 28
3039 3796 3799 28
3040 3796 3800 28
3041 3801 3802 28
3042 3801 3803 28
3043 3801 3804 28
3044 3801 3805 28
3045 3806 3807 28
3046 3806 3808 28
3047 3806 3809 28
3048 3806 3810 28
3049 3811 3812 28
3050 3811 3813 28
3051 3811 3814 28
3052 3811 3815 28
3053 3816 3817 28
3054 3816 3818 28
3055 3816 3819 28
3056 3816 3820 28
3057 3821 3822 28
3058 3821 3823 28
3059 3821 3824 28
3060 3821 3825 28
3061 3826 3827 28
3062 3826 3828 28
3063 3826 3829 28
3064 3826 3830 28
3065 3831 3832 28
3066 3831 3833 28
3067 3831 3834 28
3068 3831 3835 28
3069 3836 3837 28
3070 3836 3838 28
3071 3836 3839 28
3072 3836 3840 28
3073 3841 3842 28
3074 3841 3843 28
3075 3841 3844 28
3076 3841 3845 28
3077 3846 3847 28
3078 3846 3848 28
3079 3846 3849 28
3080 3846 3850 28
3081 3851 3852 28
3082 3851 3853 28
3083 3851 3854 28
3084 3851 3855 28
3085 3856 3857 28
3086 3856 3858 28
3087 3856 3859 28
3088 3856 3860 28
3089 3861 3862 28
3090 3861 3863 28
3091 3861 3864 28
3092 3861 3865 28
3093 3866 3867 28
3094 3866 3868 28
3095 3866 3869 28
3096 3866 3870 28
3097 3871 3872 28
3098 3871 3873 28
3099 3871 3874 28
3100 3871 3875 28
3101 3876 3877 28
3102 3876 3878 28
3103 3876 3879 28
3104 3876 3880 28
3105 3881 3882 28
3106 3881 3883 28
3107 3881 3884 28
3108 3881 3885 28
3109 3886 3887 28
3110 3886 3888 28
3111 3886 3889 28
3112 3886 3890 28
3113 3891 3892 28
3114 3891 3893 28
3115 3891 3894 28
3116 3891 3895 28
3117 3896 3897 28
3118 3896 3898 28
3119 3896 3899 28
3120 3896 3900 28
3121 3901 3902 28
3122 3901 3903 28
3123 3901 3904 28
3124 3901 3905 28
3125 3906 3907 28
3126 3906 3908 28
3127 3906 3909 28
3128 3906 3910 28
3129 3911 3912 28
3130 3911 3913 28
3131 3911 3914 28
3132 3911 3915 28
3133 3916 3917 28
3134 3916 3918 28
3135 3916 3919 28
3136 3916 3920 28
3137 3921 3922 28
3138 3921 3923 28
3139 3921 3924 28
3140 3921 3925 28
3141 3926 3927 28
3142 3926 3928 28
3143 3926 3929 28
3144 3926 3930 28
3145 3931 3932 28
3146 3931 3933 28
3147 3931 3934 28
3148 3931 3935 28
3149 3936 3937 28
3150 3936 3938 28
3151 3936 3939 28
3152 3936 3940 28
3153 3941 3942 28
3154 3941 3943 28
3155 3941 3944 28
3156 3941 3945 28
3157 3946 3947 28
3158 3946 3948 28
3159 3946 3949 28
3160 3946 3950 28
3161 3951 3952 28
3162 3951 3953 28
3163 3951 3954 28
3164 3951 3955 28
3165 3956 3957 28
3166 3956 3958 28
3167 3956 3959 28
3168 3956 3960 28
3169 3961 3962 28
3170 3961 3963 28
3171 3961 3964 28
3172 3961 3965 28
3173 3966 3967 28
3174 3966 3968 28
3175 3966 3969 28
3176 3966 3970 28
3177 3971 3972 28
3178 3971 3973 28
3179 3971 3974 28
3180 3971 3975 28
3181 3976 3977 28
3182 3976 3978 28
3183 3976 3979 28
3184 3976 3980 28
3185 3981 3982 28
3186 3981 3983 28
3187 3981 3984 28
3188 3981 3985 28
3189 3986 3987 28
3190 3986 3988 28
3191 3986 3989 28
3192 3986 3990 28
3193 3991 3992 28
3194 3991 3993 28
3195 3991 3994 28
3196 3991 3995 28
3197 3996 3997 28
3198 3996 3998 28
3199 3996 3999 28
3200 3996 4000 28
3201 4001 4002 28
3202 4001 4003 28
3203 4001 4004 28
3204 4001 4005 28
3205 4006 4007 28
3206 4006 4008 28
3207 4006 4009 28
3208 4006 4010 28
3209 4011 4012 28
3210 4011 4013 28
3211 4011 4014 28
3212 4011 4015 28
3213 4016 4017 28
3214 4016 4018 28
3215 4016 4019 28
3216 4016 4020 28
3217 4021 4022 28
3218 4021 4023 28
3219 4021 4024 28
3220 4021 4025 28
3221 4026 4027 28
3222 4026 4028 28
3223 4026 4029 28
3224 4026 4030 28
3225 4031 4032 28
3226 4031 4033 28
3227 4031 4034 28
3228 4031 4035 28
3229 4036 4037 28
3230 4036 4038 28
3231 4036 4039 28
3232 4036 4040 28
3233 4041 4042 28
3234 4041 4043 28
3235 4041 4044 28
3236 4041 4045 28
3237 4046 4047 28
3238 4046 4048 28
3239 4046 4049 28
3240 4046 4050 28
3241 4051 4052 28
3242 4051 4053 28
3243 4051 4054 28
3244 4051 4055 28
3245 4056 4057 28
3246 4056 4058 28
3247 4056 4059 28
3248 4056 4060 28
3249 4061 4062 28
3250 4061 4063 28
3251 4061 4064 28
3252 4061 4065 28
3253 4066 4067 28
3254 4066 4068 28
3255 4066 4069 28
3256 4066 4070 28
3257 4071 4072 28
3258 4071 4073 28
3259 4071 4074 28
3260 4071 4075 28
3261 4076 4077 28
3262 4076 4078 28
3263 4076 4079 28
3264 4076 4080 28
3265 4081 4082 28
3266 4081 4083 28
3267 4081 4084 28
3268 4081 4085 28
3269 4086 4087 28
3270 4086 4088 28
3271 4086 4089 28
3272 4086 4090 28
3273 4091 4092 28
3274 4091 4093 28
3275 4091 4094 28
3276 4091 4095 28
3277 4096 4097 28
3278 4096 4098 28
3279 4096 4099 28
3280 4096 4100 28
3281 4101 4102 28
3282 4101 4103 28
3283 4101 4104 28
3284 4101 4105 28
3285 4106 4107 28
3286 4106 4108 28
3287 4106 4109 28
3288 4106 4110 28
3289 4111 4112 28
3290 4111 4113 28
3291 4111 4114 28
3292 4111 4115 28
3293 4116 4117 28
3294 4116 4118 28
3295 4116 4119 28
3296 4116 4120 28
3297 4121 4122 28
3298 4121 4123 28
3299 4121 4124 28
3300 4121 4125 28
3301 4126 4127 28
3302 4126 4128 28
3303 4126 4129 28
3304 4126 4130 28
3305 4131 4132 28
3306 4131 4133 28
3307 4131 4134 28
3308 4131 4135 28
3309 4136 4137 28
3310 4136 4138 28
3311 4136 4139 28
3312 4136 4140 28
3313 4141 4142 28
3314 4141 4143 28
3315 4141 4144 28
3316 4141 4145 28
3317 4146 4147 28
3318 4146 4148 28
3319 4146 4149 28
3320 4146 4150 28
3321 4151 4152 28
3322 4151 4153 28
3323 4151 4154 28
3324 4151 4155 28
3325 4156 4157 28
3326 4156 4158 28
3327 4156 4159 28
3328 4156 4160 28
3329 4161 4162 28
3330 4161 4163 28
3331 4161 4164 28
3332 4161 4165 28
3333 4166 4167 28
3334 4166 4168 28
3335 4166 4169 28
3336 4166 4170 28
3337 4171 4172 28
3338 4171 4173 28
3339 4171 4174 28
3340 4171 4175 28
3341 4176 4177 28
3342 4176 4178 28
3343 4176 4179 28
3344 4176 4180 28
3345 4181 4182 28
3346 4181 4183 28
3347 4181 4184 28
3348 4181 4185 28
3349 4186 4187 28
3350 4186 4188 28
3351 4186 4189 28
3352 4186 4190 28
3353 4191 4192 28
3354 4191 4193 28
3355 4191 4194 28
3356 4191 4195 28
3357 4196 4197 28
3358 4196 4198 28
3359 4196 4199 28
3360 4196 4200 28
3361 4201 4202 28
3362 4201 4203 28
3363 4201 4204 28
3364 4201 4205 28
3365 4206 4207 28
3366 4206 4208 28
3367 4206 4209 28
3368 4206 4210 28
3369 4211 4212 28
3370 4211 4213 28
3371 4211 4214 28
3372 4211 4215 28
3373 4216 4217 28
3374 4216 4218 28
3375 4216 4219 28
3376 4216 4220 28
3377 4221 4222 28
3378 4221 4223 28
3379 4221 4224 28
3380 4221 4225 28
3381 4226 4227 28
3382 4226 4228 28
3383 4226 4229 28
3384 4226 4230 28
3385 4231 4232 28
3386 4231 4233 28
3387 4231 4234 28
3388 4231 4235 28
3389 4236 4237 28
3390 4236 4238 28
3391 4236 4239 28
3392 4236 4240 28
3393 4241 4242 28
3394 4241 4243 28
3395 4241 4244 28
3396 4241 4245 28
3397 4246 4247 28
3398 4246 4248 28
3399 4246 4249 28
3400 4246 4250 28
3401 4251 4252 28
3402 4251 4253 28
3403 4251 4254 28
3404 4251 4255 28
3405 4256 4257 28
3406 4256 4258 28
3407 4256 4259 28
3408 4256 4260 28
3409 4261 4262 28
3410 4261 4263 28
3411 4261 4264 28
3412 4261 4265 28
3413 4266 4267 28
3414 4266 4268 28
3415 4266 4269 28
3416 4266 4270 28
3417 4271 4272 28
3418 4271 4273 28
3419 4271 4274 28
3420 4271 4275 28
3421 4276 4277 28
3422 4276 4278 28
3423 4276 4279 28
3424 4276 4280 28
3425 4281 4282 28
3426 4281 4283 28
3427 4281 4284 28
3428 4281 4285 28
3429 4286 4287 28
3430 4286 4288 28
3431 4286 4289 28
3432 4286 4290 28
3433 4291 4292 28
3434 4291 4293 28
3435 4291 4294 28
3436 4291 4295 28
3437 4296 4297 28
3438 4296 4298 28
3439 4296 4299 28
3440 4296 4300 28
3441 4301 4302 28
3442 4301 4303 28
3443 4301 4304 28
3444 4301 4305 28
3445 4306 4307 28
3446 4306 4308 28
3447 4306 4309 28
3448 4306 4310 28
3449 4311 4312 28
3450 4311 4313 28
3451 4311 4314 28
3452 4311 4315 28
3453 4316 4317 28
3454 4316 4318 28
3455 4316 4319 28
3456 4316 4320 28
3457 4321 4322 28
3458 4321 4323 28
3459 4321 4324 28
3460 4321 4325 28
3461 4326 4327 28
3462 4326 4328 28
3463 4326 4329 28
3464 4326 4330 28
3465 4331 4332 28
3466 4331 4333 28
3467 4331 4334 28
3468 4331 4335 28
3469 4336 4337 28
3470 4336 4338 28
3471 4336 4339 28
3472 4336 4340 28
3473 4341 4342 28
3474 4341 4343 28
3475 4341 4344 28
3476 4341 4345 28
3477 4346 4347 28
3478 4346 4348 28
3479 4346 4349 28
3480 4346 4350 28
3481 4351 4352 28
3482 4351 4353 28
3483 4351 4354 28
3484 4351 4355 28
3485 4356 4357 28
3486 4356 4358 28
3487 4356 4359 28
3488 4356 4360 28
3489 4361 4362 28
3490 4361 4363 28
3491 4361 4364 28
3492 4361 4365 28
3493 4366 4367 28
3494 4366 4368 28
3495 4366 4369 28
3496 4366 4370 28
3497 4371 4372 28
3498 4371 4373 28
3499 4371 4374 28
3500 4371 4375 28
3501 4376 4377 28
3502 4376 4378 28
3503 4376 4379 28
3504 4376 4380 28
3505 4381 4382 28
3506 4381 4383 28
3507 4381 4384 28
3508 4381 4385 28
3509 4386 4387 28
3510 4386 4388 28
3511 4386 4389 28
3512 4386 4390 28
3513 4391 4392 28
3514 4391 4393 28
3515 4391 4394 28
3516 4391 4395 28
3517 4396 4397 28
3518 4396 4398 28
3519 4396 4399 28
3520 4396 4400 28
3521 4401 4402 28
3522 4401 4403 28
3523 4401 4404 28
3524 4401 4405 28
3525 4406 4407 28
3526 4406 4408 28
3527 4406 4409 28
3528 4406 4410 28
3529 4411 4412 28
3530 4411 4413 28
3531 4411 4414 28
3532 4411 4415 28
3533 4416 4417 28
3534 4416 4418 28
3535 4416 4419 28
3536 4416 4420 28
3537 4421 4422 28
3538 4421 4423 28
3539 4421 4424 28
3540 4421 4425 28
3541 4426 4427 28
3542 4426 4428 28
3543 4426 4429 28
3544 4426 4430 28
3545 4431 4432 28
3546 4431 4433 28
3547 4431 4434 28
3548 4431 4435 28
3549 4436 4437 28
3550 4436 4438 28
3551 4436 4439 28
3552 4436 4440 28
3553 4441 4442 28
3554 4441 4443 28
3555 4441 4444 28
3556 4441 4445 28
3557 4446 4447 28
3558 4446 4448 28
3559 4446 4449 28
3560 4446 4450 28
3561 4451 4452 28
3562 4451 4453 28
3563 4451 4454 28
3564 4451 4455 28
3565 4456 4457 28
3566 4456 4458 28
3567 4456 4459 28
3568 4456 4460 28
3569 4461 4462 28
3570 4461 4463 28
3571 4461 4464 28
3572 4461 4465 28
3573 4466 4467 28
3574 4466 4468 28
3575 4466 4469 28
3576 4466 4470 28
3577 4471 4472 28
3578 4471 4473 28
3579 4471 4474 28
3580 4471 4475 28
3581 4476 4477 28
3582 4476 4478 28
3583 4476 4479 28
3584 4476 4480 28
3585 4481 4482 28
3586 4481 4483 28
3587 4481 4484 28
3588 4481 4485 28
3589 4486 4487 28
3590 4486 4488 28
3591 4486 4489 28
3592 4486 4490 28
3593 4491 4492 28
3594 4491 4493 28
3595 4491 4494 28
3596 4491 4495 28
3597 4496 4497 28
3598 4496 4498 28
3599 4496 4499 28
3600 4496 4500 28
3601 4501 4502 28
3602 4501 4503 28
3603 4501 4504 28
3604 4501 4505 28
3605 4506 4507 28
3606 4506 4508 28
3607 4506 4509 28
3608 4506 4510 28
3609 4511 4512 28
3610 4511 4513 28
3611 4511 4514 28
3612 4511 4515 28
3613 4516 4517 28
3614 4516 4518 28
3615 4516 4519 28
3616 4516 4520 28
3617 4521 4522 28
3618 4521 4523 28
3619 4521 4524 28
3620 4521 4525 28
3621 4526 4527 28
3622 4526 4528 28
3623 4526 4529 28
3624 4526 4530 28
3625 4531 4532 28
3626 4531 4533 28
3627 4531 4534 28
3628 4531 4535 28
3629 4536 4537 28
3630 4536 4538 28
3631 4536 4539 28
3632 4536 4540 28
3633 4541 4542 28
3634 4541 4543 28
3635 4541 4544 28
3636 4541 4545 28
3637 4546 4547 28
3638 4546 4548 28
3639 4546 4549 28
3640 4546 4550 28
3641 4551 4552 28
3642 4551 4553 28
3643 4551 4554 28
3644 4551 4555 28
3645 4556 4557 28
3646 4556 4558 28
3647 4556 4559 28
3648 4556 4560 28
3649 4561 4562 28
3650 4561 4563 28
3651 4561 4564 28
3652 4561 4565 28
3653 4566 4567 28
3654 4566 4568 28
3655 4566 4569 28
3656 4566 4570 28
3657 4571 4572 28
3658 4571 4573 28
3659 4571 4574 28
3660 4571 4575 28
3661 4576 4577 28
3662 4576 4578 28
3663 4576 4579 28
3664 4576 4580 28
3665 4581 4582 28
3666 4581 4583 28
3667 4581 4584 28
3668 4581 4585 28
3669 4586 4587 28
3670 4586 4588 28
3671 4586 4589 28
3672 4586 4590 28
3673 4591 4592 28
3674 4591 4593 28
3675 4591 4594 28
3676 4591 4595 28
3677 4596 4597 28
3678 4596 4598 28
3679 4596 4599 28
3680 4596 4600 28
3681 4601 4602 28
3682 4601 4603 28
3683 4601 4604 28
3684 4601 4605 28
3685 4606 4607 28
3686 4606 4608 28
3687 4606 4609 28
3688 4606 4610 28
3689 4611 4612 28
3690 4611 4613 28
3691 4611 4614 28
3692 4611 4615 28
3693 4616 4617 28
3694 4616 4618 28
3695 4616 4619 28
3696 4616 4620 28
3697 4621 4622 28
3698 4621 4623 28
3699 4621 4624 28
3700 4621 4625 28
3701 4626 4627 28
3702 4626 4628 28
3703 4626 4629 28
3704 4626 4630 28
3705 4631 4632 28
3706 4631 4633 28
3707 4631 4634 28
3708 4631 4635 28
3709 4636 4637 28
3710 4636 4638 28
3711 4636 4639 28
3712 4636 4640 28
3713 4641 4642 28
3714 4641 4643 28
3715 4641 4644 28
3716 4641 4645 28
3717 4646 4647 28
3718 4646 4648 28
3719 4646 4649 28
3720 4646 4650 28
3721 4651 4652 28
3722 4651 4653 28
3723 4651 4654 28
3724 4651 4655 28
3725 4656 4657 28
3726 4656 4658 28
3727 4656 4659 28
3728 4656 4660 28
3729 4661 4662 28
3730 4661 4663 28
3731 4661 4664 28
3732 4661 4665 28
3733 4666 4667 28
3734 4666 4668 28
3735 4666 4669 28
3736 4666 4670 28
3737 4671 4672 28
3738 4671 4673 28
3739 4671 4674 28
3740 4671 4675 28
3741 4676 4677 28
3742 4676 4678 28
3743 4676 4679 28
3744 4676 4680 28
3745 4681 4682 28
3746 4681 4683 28
3747 4681 4684 28
3748 4681 4685 28
3749 4686 4687 28
3750 4686 4688 28
3751 4686 4689 28
3752 4686 4690 28
3753 4691 4692 28
3754 4691 4693 28
3755 4691 4694 28
3756 4691 4695 28
3757 4696 4697 28
3758 4696 4698 28
3759 4696 4699 28
3760 4696 4700 28
3761 4701 4702 28
3762 4701 4703 28
3763 4701 4704 28
3764 4701 4705 28
3765 4706 4707 28
3766 4706 4708 28
3767 4706 4709 28
3768 4706 4710 28
3769 4711 4712 28
3770 4711 4713 28
3771 4711 4714 28
3772 4711 4715 28
3773 4716 4717 28
3774 4716 4718 28
3775 4716 4719 28
3776 4716 4720 28
3777 4721 4722 28
3778 4721 4723 28
3779 4721 4724 28
3780 4721 4725 28
3781 4726 4727 28
3782 4726 4728 28
3783 4726 4729 28
3784 4726 4730 28
3785 4731 4732 28
3786 4731 4733 28
3787 4731 4734 28
3788 4731 4735 28
3789 4736 4737 28
3790 4736 4738 28
3791 4736 4739 28
3792 4736 4740 28
3793 4741 4742 28
3794 4741 4743 28
3795 4741 4744 28
3796 4741 4745 28
3797 4746 4747 28
3798 4746 4748 28
3799 4746 4749 28
3800 4746 4750 28
3801 4751 4752 28
3802 4751 4753 28
3803 4751 4754 28
3804 4751 4755 28
3805 4756 4757 28
3806 4756 4758 28
3807 4756 4759 28
3808 4756 4760 28
3809 4761 4762 28
3810 4761 4763 28
3811 4761 4764 28
3812 4761 4765 28
3813 4766 4767 28
3814 4766 4768 28
3815 4766 4769 28
3816 4766 4770 28
3817 4771 4772 28
3818 4771 4773 28
3819 4771 4774 28
3820 4771 4775 28
3821 4776 4777 28
3822 4776 4778 28
3823 4776 4779 28
3824 4776 4780 28
3825 4781 4782 28
3826 4781 4783 28
3827 4781 4784 28
3828 4781 4785 28
3829 4786 4787 28
3830 4786 4788 28
3831 4786 4789 28
3832 4786 4790 28
3833 4791 4792 28
3834 4791 4793 28
3835 4791 4794 28
3836 4791 4795 28
3837 4796 4797 28
3838 4796 4798 28
3839 4796 4799 28
3840 4796 4800 28
3841 4801 4802 28
3842 4801 4803 28
3843 4801 4804 28
3844 4801 4805 28
3845 4806 4807 28
3846 4806 4808 28
3847 4806 4809 28
3848 4806 4810 28
3849 4811 4812 28
3850 4811 4813 28
3851 4811 4814 28
3852 4811 4815 28
3853 4816 4817 28
3854 4816 4818 28
3855 4816 4819 28
3856 4816 4820 28
3857 4821 4822 28
3858 4821 4823 28
3859 4821 4824 28
3860 4821 4825 28
3861 4826 4827 28
3862 4826 4828 28
3863 4826 4829 28
3864 4826 4830 28
3865 4831 4832 28
3866 4831 4833 28
3867 4831 4834 28
3868 4831 4835 28
3869 4836 4837 28
3870 4836 4838 28
3871 4836 4839 28
3872 4836 4840 28
3873 4841 4842 28
3874 4841 4843 28
3875 4841 4844 28
3876 4841 4845 28
3877 4846 4847 28
3878 4846 4848 28
3879 4846 4849 28
3880 4846 4850 28
3881 4851 4852 28
3882 4851 4853 28
3883 4851 4854 28
3884 4851 4855 28
3885 4856 4857 28
3886 4856 4858 28
3887 4856 4859 28
3888 4856 4860 28
3889 4861 4862 28
3890 4861 4863 28
3891 4861 4864 28
3892 4861 4865 28
3893 4866 4867 28
3894 4866 4868 28
3895 4866 4869 28
3896 4866 4870 28
3897 4871 4872 28
3898 4871 4873 28
3899 4871 4874 28
3900 4871 4875 28
3901 4876 4877 28
3902 4876 4878 28
3903 4876 4879 28
3904 4876 4880 28
3905 4881 4882 28
3906 4881 4883 28
3907 4881 4884 28
3908 4881 4885 28
3909 4886 4887 28
3910 4886 4888 28
3911 4886 4889 28
3912 4886 4890 28
3913 4891 4892 28
3914 4891 4893 28
3915 4891 4894 28
3916 4891 4895 28
3917 4896 4897 28
3918 4896 4898 28
3919 4896 4899 28
3920 4896 4900 28
3921 4901 4902 28
3922 4901 4903 28
3923 4901 4904 28
3924 4901 4905 28
3925 4906 4907 28
3926 4906 4908 28
3927 4906 4909 28
3928 4906 4910 28
3929 4911 4912 28
3930 4911 4913 28
3931 4911 4914 28
3932 4911 4915 28
3933 4916 4917 28
3934 4916 4918 28
3935 4916 4919 28
3936 4916 4920 28
3937 4921 4922 28
3938 4921 4923 28
3939 4921 4924 28
3940 4921 4925 28
3941 4926 4927 28
3942 4926 4928 28
3943 4926 4929 28
3944 4926 4930 28
3945 4931 4932 28
3946 4931 4933 28
3947 4931 4934 28
3948 4931 4935 28
3949 4936 4937 28
3950 4936 4938 28
3951 4936 4939 28
3952 4936 4940 28
3953 4941 4942 28
3954 4941 4943 28
3955 4941 4944 28
3956 4941 4945 28
3957 4946 4947 28
3958 4946 4948 28
3959 4946 4949 28
3960 4946 4950 28
3961 4951 4952 28
3962 4951 4953 28
3963 4951 4954 28
3964 4951 4955 28
3965 4956 4957 28
3966 4956 4958 28
3967 4956 4959 28
3968 4956 4960 28
3969 4961 4962 28
3970 4961 4963 28
3971 4961 4964 28
3972 4961 4965 28
3973 4966 4967 28
3974 4966 4968 28
3975 4966 4969 28
3976 4966 4970 28
3977 4971 4972 28
3978 4971 4973 28
3979 4971 4974 28
3980 4971 4975 28
3981 4976 4977 28
3982 4976 4978 28
3983 4976 4979 28
3984 4976 4980 28
3985 4981 4982 28
3986 4981 4983 28
3987 4981 4984 28
3988 4981 4985 28
3989 4986 4987 28
3990 4986 4988 28
3991 4986 4989 28
3992 4986 4990 28
3993 4991 4992 28
3994 4991 4993 28
3995 4991 4994 28
3996 4991 4995 28
3997 4996 4997 28
3998 4996 4998 28
3999 4996 4999 28
4000 4996 5000 28
4001 5001 5002 28
4002 5001 5003 28
4003 5001 5004 28
4004 5001 5005 28
4005 5006 5007 28
4006 5006 5008 28
4007 5006 5009 28
4008 5006 5010 28
4009 5011 5012 28
4010 5011 5013 28
4011 5011 5014 28
4012 5011 5015 28
4013 5016 5017 28
4014 5016 5018 28
4015 5016 5019 28
4016 5016 5020 28
4017 5021 5022 28
4018 5021 5023 28
4019 5021 5024 28
4020 5021 5025 28
4021 5026 5027 28
4022 5026 5028 28
4023 5026 5029 28
4024 5026 5030 28
4025 5031 5032 28
4026 5031 5033 28
4027 5031 5034 28
4028 5031 5035 28
4029 5036 5037 28
4030 5036 5038 28
4031 5036 5039 28
4032 5036 5040 28
4033 5041 5042 28
4034 5041 5043 28
4035 5041 5044 28
4036 5041 5045 28
4037 5046 5047 28
4038 5046 5048 28
4039 5046 5049 28
4040 5046 5050 28
4041 5051 5052 28
4042 5051 5053 28
4043 5051 5054 28
4044 5051 5055 28
4045 5056 5057 28
4046 5056 5058 28
4047 5056 5059 28
4048 5056 5060 28
4049 5061 5062 28
4050 5061 5063 28
4051 5061 5064 28
4052 5061 5065 28
4053 5066 5067 28
4054 5066 5068 28
4055 5066 5069 28
4056 5066 5070 28
4057 5071 5072 28
4058 5071 5073 28
4059 5071 5074 28
4060 5071 5075 28
4061 5076 5077 28
4062 5076 5078 28
4063 5076 5079 28
4064 5076 5080 28
4065 5081 5082 28
4066 5081 5083 28
4067 5081 5084 28
4068 5081 5085 28
4069 5086 5087 28
4070 5086 5088 28
4071 5086 5089 28
4072 5086 5090 28
4073 5091 5092 28
4074 5091 5093 28
4075 5091 5094 28
4076 5091 5095 28
4077 5096 5097 28
4078 5096 5098 28
4079 5096 5099 28
4080 5096 5100 28
4081 5101 5102 28
4082 5101 5103 28
4083 5101 5104 28
4084 5101 5105 28
4085 5106 5107 28
4086 5106 5108 28
4087 5106 5109 28
4088 5106 5110 28
4089 5111 5112 28
4090 5111 5113 28
4091 5111 5114 28
4092 5111 5115 28
4093 5116 5117 28
4094 5116 5118 28
4095 5116 5119 28
4096 5116 5120 28
4097 5121 5122 28
4098 5121 5123 28
4099 5121 5124 28
4100 5121 5125 28
4101 5126 5127 28
4102 5126 5128 28
4103 5126 5129 28
4104 5126 5130 28
4105 5131 5132 28
4106 5131 5133 28
4107 5131 5134 28
4108 5131 5135 28
4109 5136 5137 28
4110 5136 5138 28
4111 5136 5139 28
4112 5136 5140 28
4113 5141 5142 28
4114 5141 5143 28
4115 5141 5144 28
4116 5141 5145 28
4117 5146 5147 28
4118 5146 5148 28
4119 5146 5149 28
4120 5146 5150 28
4121 5151 5152 28
4122 5151 5153 28
4123 5151 5154 28
4124 5151 5155 28
4125 5156 5157 28
4126 5156 5158 28
4127 5156 5159 28
4128 5156 5160 28
4129 5161 5162 28
4130 5161 5163 28
4131 5161 5164 28
4132 5161 5165 28
4133 5166 5167 28
4134 5166 5168 28
4135 5166 5169 28
4136 5166 5170 28
4137 5171 5172 28
4138 5171 5173 28
4139 5171 5174 28
4140 5171 5175 28
4141 5176 5177 28
4142 5176 5178 28
4143 5176 5179 28
4144 5176 5180 28
4145 5181 5182 28
4146 5181 5183 28
4147 5181 5184 28
4148 5181 5185 28
4149 5186 5187 28
4150 5186 5188 28
4151 5186 5189 28
4152 5186 5190 28
4153 5191 5192 28
4154 5191 5193 28
4155 5191 5194 28
4156 5191 5195 28
4157 5196 5197 28
4158 5196 5198 28
4159 5196 5199 28
4160 5196 5200 28
4161 5201 5202 28
4162 5201 5203 28
4163 5201 5204 28
4164 5201 5205 28
4165 5206 5207 28
4166 5206 5208 28
4167 5206 5209 28
4168 5206 5210 28
4169 5211 5212 28
4170 5211 5213 28
4171 5211 5214 28
4172 5211 5215 28
4173 5216 5217 28
4174 5216 5218 28
4175 5216 5219 28
4176 5216 5220 28
4177 5221 5222 28
4178 5221 5223 28
4179 5221 5224 28
4180 5221 5225 28
4181 5226 5227 28
4182 5226 5228 28
4183 5226 5229 28
4184 5226 5230 28
4185 5231 5232 28
4186 5231 5233 28
4187 5231 5234 28
4188 5231 5235 28
4189 5236 5237 28
4190 5236 5238 28
4191 5236 5239 28
4192 5236 5240 28
4193 5241 5242 28
4194 5241 5243 28
4195 5241 5244 28
4196 5241 5245 28
4197 5246 5247 28
4198 5246 5248 28
4199 5246 5249 28
4200 5246 5250 28
4201 5251 5252 28
4202 5251 5253 28
4203 5251 5254 28
4204 5251 5255 28
4205 5256 5257 28
4206 5256 5258 28
4207 5256 5259 28
4208 5256 5260 28
4209 5261 5262 28
4210 5261 5263 28
4211 5261 5264 28
4212 5261 5265 28
4213 5266 5267 28
4214 5266 5268 28
4215 5266 5269 28
4216 5266 5270 28
4217 5271 5272 28
4218 5271 5273 28
4219 5271 5274 28
4220 5271 5275 28
4221 5276 5277 28
4222 5276 5278 28
4223 5276 5279 28
4224 5276 5280 28
4225 5281 5282 28
4226 5281 5283 28
4227 5281 5284 28
4228 5281 5285 28
4229 5286 5287 28
4230 5286 5288 28
4231 5286 5289 28
4232 5286 5290 28
4233 5291 5292 28
4234 5291 5293 28
4235 5291 5294 28
4236 5291 5295 28
4237 5296 5297 28
4238 5296 5298 28
4239 5296 5299 28
4240 5296 5300 28
4241 5301 5302 28
4242 5301 5303 28
4243 5301 5304 28
4244 5301 5305 28
4245 5306 5307 28
4246 5306 5308 28
4247 5306 5309 28
4248 5306 5310 28
4249 5311 5312 28
4250 5311 5313 28
4251 5311 5314 28
4252 5311 5315 28
4253 5316 5317 28
4254 5316 5318 28
4255 5316 5319 28
4256 5316 5320 28
4257 5321 5322 28
4258 5321 5323 28
4259 5321 5324 28
4260 5321 5325 28
4261 5326 5327 28
4262 5326 5328 28
4263 5326 5329 28
4264 5326 5330 28
4265 5331 5332 28
4266 5331 5333 28
4267 5331 5334 28
4268 5331 5335 28
4269 5336 5337 28
4270 5336 5338 28
4271 5336 5339 28
4272 5336 5340 28
4273 5341 5342 28
4274 5341 5343 28
4275 5341 5344 28
4276 5341 5345 28
4277 5346 5347 28
4278 5346 5348 28
4279 5346 5349 28
4280 5346 5350 28
4281 5351 5352 28
4282 5351 5353 28
4283 5351 5354 28
4284 5351 5355 28
4285 5356 5357 28
4286 5356 5358 28
4287 5356 5359 28
4288 5356 5360 28
4289 5361 5362 28
4290 5361 5363 28
4291 5361 5364 28
4292 5361 5365 28
4293 5366 5367 28
4294 5366 5368 28
4295 5366 5369 28
4296 5366 5370 28
4297 5371 5372 28
4298 5371 5373 28
4299 5371 5374 28
4300 5371 5375 28
4301 5376 5377 28
4302 5376 5378 28
4303 5376 5379 28
4304 5376 5380 28
4305 5381 5382 28
4306 5381 5383 28
4307 5381 5384 28
4308 5381 5385 28
4309 5386 5387 28
4310 5386 5388 28
4311 5386 5389 28
4312 5386 5390 28
4313 5391 5392 28
4314 5391 5393 28
4315 5391 5394 28
4316 5391 5395 28
4317 5396 5397 28
4318 5396 5398 28
4319 5396 5399 28
4320 5396 5400 28
4321 5401 5402 28
4322 5401 5403 28
4323 5401 5404 28
4324 5401 5405 28
4325 5406 5407 28
4326 5406 5408 28
4327 5406 5409 28
4328 5406 5410 28
4329 5411 5412 28
4330 5411 5413 28
4331 5411 5414 28
4332 5411 5415 28
4333 5416 5417 28
4334 5416 5418 28
4335 5416 5419 28
4336 5416 5420 28
4337 5421 5422 28
4338 5421 5423 28
4339 5421 5424 28
4340 5421 5425 28
4341 5426 5427 28
4342 5426 5428 28
4343 5426 5429 28
4344 5426 5430 28
4345 5431 5432 28
4346 5431 5433 28
4347 5431 5434 28
4348 5431 5435 28
4349 5436 5437 28
4350 5436 5438 28
4351 5436 5439 28
4352 5436 5440 28
4353 5441 5442 28
4354 5441 5443 28
4355 5441 5444 28
4356 5441 5445 28
4357 5446 5447 28
4358 5446 5448 28
4359 5446 5449 28
4360 5446 5450 28
4361 5451 5452 28
4362 5451 5453 28
4363 5451 5454 28
4364 5451 5455 28
4365 5456 5457 28
4366 5456 5458 28
4367 5456 5459 28
4368 5456 5460 28
4369 5461 5462 28
4370 5461 5463 28
4371 5461 5464 28
4372 5461 5465 28
4373 5466 5467 28
4374 5466 5468 28
4375 5466 5469 28
4376 5466 5470 28
4377 5471 5472 28
4378 5471 5473 28
4379 5471 5474 28
4380 5471 5475 28
4381 5476 5477 28
4382 5476 5478 28
4383 5476 5479 28
4384 5476 5480 28
4385 5481 5482 28
4386 5481 5483 28
4387 5481 5484 28
4388 5481 5485 28
4389 5486 5487 28
4390 5486 5488 28
4391 5486 5489 28
4392 5486 5490 28
4393 5491 5492 28
4394 5491 5493 28
4395 5491 5494 28
4396 5491 5495 28
4397 5496 5497 28
4398 5496 5498 28
4399 5496 5499 28
4400 5496 5500 28
4401 5501 5502 28
4402 5501 5503 28
4403 5501 5504 28
4404 5501 5505 28
4405 5506 5507 28
4406 5506 5508 28
4407 5506 5509 28
4408 5506 5510 28
4409 5511 5512 28
4410 5511 5513 28
4411 5511 5514 28
4412 5511 5515 28
4413 5516 5517 28
4414 5516 5518 28
4415 5516 5519 28
4416 5516 5520 28
4417 5521 5522 28
4418 5521 5523 28
4419 5521 5524 28
4420 5521 5525 28
4421 5526 5527 28
4422 5526 5528 28
4423 5526 5529 28
4424 5526 5530 28
4425 5531 5532 28
4426 5531 5533 28
4427 5531 5534 28
4428 5531 5535 28
4429 5536 5537 28
4430 5536 5538 28
4431 5536 5539 28
4432 5536 5540 28
4433 5541 5542 28
4434 5541 5543 28
4435 5541 5544 28
4436 5541 5545 28
4437 5546 5547 28
4438 5546 5548 28
4439 5546 5549 28
4440 5546 5550 28
4441 5551 5552 28
4442 5551 5553 28
4443 5551 5554 28
4444 5551 5555 28
4445 5556 5557 28
4446 5556 5558 28
4447 5556 5559 28
4448 5556 5560 28
4449 5561 5562 28
4450 5561 5563 28
4451 5561 5564 28
4452 5561 5565 28
4453 5566 5567 28
4454 5566 5568 28
4455 5566 5569 28
4456 5566 5570 28
4457 5571 5572 28
4458 5571 5573 28
4459 5571 5574 28
4460 5571 5575 28
4461 5576 5577 28
4462 5576 5578 28
4463 5576 5579 28
4464 5576 5580 28
4465 5581 5582 28
4466 5581 5583 28
4467 5581 5584 28
4468 5581 5585 28
4469 5586 5587 28
4470 5586 5588 28
4471 5586 5589 28
4472 5586 5590 28
4473 5591 5592 28
4474 5591 5593 28
4475 5591 5594 28
4476 5591 5595 28
4477 5596 5597 28
4478 5596 5598 28
4479 5596 5599 28
4480 5596 5600 28
4481 5601 5602 28
4482 5601 5603 28
4483 5601 5604 28
4484 5601 5605 28
4485 5606 5607 28
4486 5606 5608 28
4487 5606 5609 28
4488 5606 5610 28
4489 5611 5612 28
4490 5611 5613 28
4491 5611 5614 28
4492 5611 5615 28
4493 5616 5617 28
4494 5616 5618 28
4495 5616 5619 28
4496 5616 5620 28
4497 5621 5622 28
4498 5621 5623 28
4499 5621 5624 28
4500 5621 5625 28
4501 5626 5627 28
4502 5626 5628 28
4503 5626 5629 28
4504 5626 5630 28
4505 5631 5632 28
4506 5631 5633 28
4507 5631 5634 28
4508 5631 5635 28
4509 5636 5637 28
4510 5636 5638 28
4511 5636 5639 28
4512 5636 5640 28
4513 5641 5642 28
4514 5641 5643 28
4515 5641 5644 28
4516 5641 5645 28
4517 5646 5647 28
4518 5646 5648 28
4519 5646 5649 28
4520 5646 5650 28
4521 5651 5652 28
4522 5651 5653 28
4523 5651 5654 28
4524 5651 5655 28
4525 5656 5657 28
4526 5656 5658 28
4527 5656 5659 28
4528 5656 5660 28
4529 5661 5662 28
4530 5661 5663 28
4531 5661 5664 28
4532 5661 5665 28
4533 5666 5667 28
4534 5666 5668 28
4535 5666 5669 28
4536 5666 5670 28
4537 5671 5672 28
4538 5671 5673 28
4539 5671 5674 28
4540 5671 5675 28
4541 5676 5677 28
4542 5676 5678 28
4543 5676 5679 28
4544 5676 5680 28
4545 5681 5682 28
4546 5681 5683 28
4547 5681 5684 28
4548 5681 5685 28
4549 5686 5687 28
4550 5686 5688 28
4551 5686 5689 28
4552 5686 5690 28
4553 5691 5692 28
4554 5691 5693 28
4555 5691 5694 28
4556 5691 5695 28
4557 5696 5697 28
4558 5696 5698 28
4559 5696 5699 28
4560 5696 5700 28
4561 5701 5702 28
4562 5701 5703 28
4563 5701 5704 28
4564 5701 5705 28
4565 5706 5707 28
4566 5706 5708 28
4567 5706 5709 28
4568 5706 5710 28
4569 5711 5712 28
4570 5711 5713 28
4571 5711 5714 28
4572 5711 5715 28
4573 5716 5717 28
4574 5716 5718 28
4575 5716 5719 28
4576 5716 5720 28
4577 5721 5722 28
4578 5721 5723 28
4579 5721 5724 28
4580 5721 5725 28
4581 5726 5727 28
4582 5726 5728 28
4583 5726 5729 28
4584 5726 5730 28
4585 5731 5732 28
4586 5731 5733 28
4587 5731 5734 28
4588 5731 5735 28
4589 5736 5737 28
4590 5736 5738 28
4591 5736 5739 28
4592 5736 5740 28
4593 5741 5742 28
4594 5741 5743 28
4595 5741 5744 28
4596 5741 5745 28
4597 5746 5747 28
4598 5746 5748 28
4599 5746 5749 28
4600 5746 5750 28
4601 5751 5752 28
4602 5751 5753 28
4603 5751 5754 28
4604 5751 5755 28
4605 5756 5757 28
4606 5756 5758 28
4607 5756 5759 28
4608 5756 5760 28
4609 5761 5762 28
4610 5761 5763 28
4611 5761 5764 28
4612 5761 5765 28
4613 5766 5767 28
4614 5766 5768 28
4615 5766 5769 28
4616 5766 5770 28
4617 5771 5772 28
4618 5771 5773 28
4619 5771 5774 28
4620 5771 5775 28
4621 5776 5777 28
4622 5776 5778 28
4623 5776 5779 28
4624 5776 5780 28
4625 5781 5782 28
4626 5781 5783 28
4627 5781 5784 28
4628 5781 5785 28
4629 5786 5787 28
4630 5786 5788 28
4631 5786 5789 28
4632 5786 5790 28
4633 5791 5792 28
4634 5791 5793 28
4635 5791 5794 28
4636 5791 5795 28
4637 5796 5797 28
4638 5796 5798 28
4639 5796 5799 28
4640 5796 5800 28
4641 5801 5802 28
4642 5801 5803 28
4643 5801 5804 28
4644 5801 5805 28
4645 5806 5807 28
4646 5806 5808 28
4647 5806 5809 28
4648 5806 5810 28
4649 5811 5812 28
4650 5811 5813 28
4651 5811 5814 28
4652 5811 5815 28
4653 5816 5817 28
4654 5816 5818 28
4655 5816 5819 28
4656 5816 5820 28
4657 5821 5822 28
4658 5821 5823 28
4659 5821 5824 28
4660 5821 5825 28
4661 5826 5827 28
4662 5826 5828 28
4663 5826 5829 28
4664 5826 5830 28
4665 5831 5832 28
4666 5831 5833 28
4667 5831 5834 28
4668 5831 5835 28
4669 5836 5837 28
4670 5836 5838 28
4671 5836 5839 28
4672 5836 5840 28
4673 5841 5842 28
4674 5841 5843 28
4675 5841 5844 28
4676 5841 5845 28
4677 5846 5847 28
4678 5846 5848 28
4679 5846 5849 28
4680 5846 5850 28
4681 5851 5852 28
4682 5851 5853 28
4683 5851 5854 28
4684 5851 5855 28
4685 5856 5857 28
4686 5856 5858 28
4687 5856 5859 28
4688 5856 5860 28
4689 5861 5862 28
4690 5861 5863 28
4691 5861 5864 28
4692 5861 5865 28
4693 5866 5867 28
4694 5866 5868 28
4695 5866 5869 28
4696 5866 5870 28
4697 5871 5872 28
4698 5871 5873 28
4699 5871 5874 28
4700 5871 5875 28
4701 5876 5877 28
4702 5876 5878 28
4703 5876 5879 28
4704 5876 5880 28
4705 5881 5882 28
4706 5881 5883 28
4707 5881 5884 28
4708 5881 5885 28
4709 5886 5887 28
4710 5886 5888 28
4711 5886 5889 28
4712 5886 5890 28
4713 5891 5892 28
4714 5891 5893 28
4715 5891 5894 28
4716 5891 5895 28
4717 5896 5897 28
4718 5896 5898 28
4719 5896 5899 28
4720 5896 5900 28
4721 5901 5902 28
4722 5901 5903 28
4723 5901 5904 28
4724 5901 5905 28
4725 5906 5907 28
4726 5906 5908 28
4727 5906 5909 28
4728 5906 5910 28
4729 5911 5912 28
4730 5911 5913 28
4731 5911 5914 28
4732 5911 5915 28
4733 5916 5917 28
4734 5916 5918 28
4735 5916 5919 28
4736 5916 5920 28
4737 5921 5922 28
4738 5921 5923 28
4739 5921 5924 28
4740 5921 5925 28
4741 5926 5927 28
4742 5926 5928 28
4743 5926 5929 28
4744 5926 5930 28
4745 5931 5932 28
4746 5931 5933 28
4747 5931 5934 28
4748 5931 5935 28
4749 5936 5937 28
4750 5936 5938 28
4751 5936 5939 28
4752 5936 5940 28
4753 5941 5942 28
4754 5941 5943 28
4755 5941 5944 28
4756 5941 5945 28
4757 5946 5947 28
4758 5946 5948 28
4759 5946 5949 28
4760 5946 5950 28
4761 5951 5952 28
4762 5951 5953 28
4763 5951 5954 28
4764 5951 5955 28
4765 5956 5957 28
4766 5956 5958 28
4767 5956 5959 28
4768 5956 5960 28
4769 5961 5962 28
4770 5961 5963 28
4771 5961 5964 28
4772 5961 5965 28
4773 5966 5967 28
4774 5966 5968 28
4775 5966 5969 28
4776 5966 5970 28
4777 5971 5972 28
4778 5971 5973 28
4779 5971 5974 28
4780 5971 5975 28
4781 5976 5977 28
4782 5976 5978 28
4783 5976 5979 28
4784 5976 5980 28
4785 5981 5982 28
4786 5981 5983 28
4787 5981 5984 28
4788 5981 5985 28
4789 5986 5987 28
4790 5986 5988 28
4791 5986 5989 28
4792 5986 5990 28
4793 5991 5992 28
4794 5991 5993 28
4795 5991 5994 28
4796 5991 5995 28
4797 5996 5997 28
4798 5996 5998 28
4799 5996 5999 28
4800 5996 6000 28
4801 6001 6002 28
4802 6001 6003 28
4803 6001 6004 28
4804 6001 6005 28
4805 6006 6007 28
4806 6006 6008 28
4807 6006 6009 28
4808 6006 6010 28
4809 6011 6012 28
4810 6011 6013 28
4811 6011 6014 28
4812 6011 6015 28
4813 6016 6017 28
4814 6016 6018 28
4815 6016 6019 28
4816 6016 6020 28
4817 6021 6022 28
4818 6021 6023 28
4819 6021 6024 28
4820 6021 6025 28
4821 6026 6027 28
4822 6026 6028 28
4823 6026 6029 28
4824 6026 6030 28
4825 6031 6032 28
4826 6031 6033 28
4827 6031 6034 28
4828 6031 6035 28
4829 6036 6037 28
4830 6036 6038 28
4831 6036 6039 28
4832 6036 6040 28
4833 6041 6042 28
4834 6041 6043 28
4835 6041 6044 28
4836 6041 6045 28
4837 6046 6047 28
4838 6046 6048 28
4839 6046 6049 28
4840 6046 6050 28
4841 6051 6052 28
4842 6051 6053 28
4843 6051 6054 28
4844 6051 6055 28
4845 6056 6057 28
4846 6056 6058 28
4847 6056 6059 28
4848 6056 6060 28
4849 6061 6062 28
4850 6061 6063 28
4851 6061 6064 28
4852 6061 6065 28
4853 6066 6067 28
4854 6066 6068 28
4855 6066 6069 28
4856 6066 6070 28
4857 6071 6072 28
4858 6071 6073 28
4859 6071 6074 28
4860 6071 6075 28
4861 6076 6077 28
4862 6076 6078 28
4863 6076 6079 28
4864 6076 6080 28
4865 6081 6082 28
4866 6081 6083 28
4867 6081 6084 28
4868 6081 6085 28
4869 6086 6087 28
4870 6086 6088 28
4871 6086 6089 28
4872 6086 6090 28
4873 6091 6092 28
4874 6091 6093 28
4875 6091 6094 28
4876 6091 6095 28
4877 6096 6097 28
4878 6096 6098 28
4879 6096 6099 28
4880 6096 6100 28
4881 6101 6102 28
4882 6101 6103 28
4883 6101 6104 28
4884 6101 6105 28
4885 6106 6107 28
4886 6106 6108 28
4887 6106 6109 28
4888 6106 6110 28
4889 6111 6112 28
4890 6111 6113 28
4891 6111 6114 28
4892 6111 6115 28
4893 6116 6117 28
4894 6116 6118 28
4895 6116 6119 28
4896 6116 6120 28
4897 6121 6122 28
4898 6121 6123 28
4899 6121 6124 28
4900 6121 6125 28
4901 6126 6127 28
4902 6126 6128 28
4903 6126 6129 28
4904 6126 6130 28
4905 6131 6132 28
4906 6131 6133 28
4907 6131 6134 28
4908 6131 6135 28
4909 6136 6137 28
4910 6136 6138 28
4911 6136 6139 28
4912 6136 6140 28
4913 6141 6142 28
4914 6141 6143 28
4915 6141 6144 28
4916 6141 6145 28
4917 6146 6147 28
4918 6146 6148 28
4919 6146 6149 28
4920 6146 6150 28
4921 6151 6152 28
4922 6151 6153 28
4923 6151 6154 28
4924 6151 6155 28
4925 6156 6157 28
4926 6156 6158 28
4927 6156 6159 28
4928 6156 6160 28
4929 6161 6162 28
4930 6161 6163 28
4931 6161 6164 28
4932 6161 6165 28
4933 6166 6167 28
4934 6166 6168 28
4935 6166 6169 28
4936 6166 6170 28
4937 6171 6172 28
4938 6171 6173 28
4939 6171 6174 28
4940 6171 6175 28
4941 6176 6177 28
4942 6176 6178 28
4943 6176 6179 28
4944 6176 6180 28
4945 6181 6182 28
4946 6181 6183 28
4947 6181 6184 28
4948 6181 6185 28
4949 6186 6187 28
4950 6186 6188 28
4951 6186 6189 28
4952 6186 6190 28
4953 6191 6192 28
4954 6191 6193 28
4955 6191 6194 28
4956 6191 6195 28
4957 6196 6197 28
4958 6196 6198 28
4959 6196 6199 28
4960 6196 6200 28
4961 6201 6202 28
4962 6201 6203 28
4963 6201 6204 28
4964 6201 6205 28
4965 6206 6207 28
4966 6206 6208 28
4967 6206 6209 28
4968 6206 6210 28
4969 6211 6212 28
4970 6211 6213 28
4971 6211 6214 28
4972 6211 6215 28
4973 6216 6217 28
4974 6216 6218 28
4975 6216 6219 28
4976 6216 6220 28
4977 6221 6222 28
4978 6221 6223 28
4979 6221 6224 28
4980 6221 6225 28
4981 6226 6227 28
4982 6226 6228 28
4983 6226 6229 28
4984 6226 6230 28
4985 6231 6232 28
4986 6231 6233 28
4987 6231 6234 28
4988 6231 6235 28
4989 6236 6237 28
4990 6236 6238 28
4991 6236 6239 28
4992 6236 6240 28
4993 6241 6242 28
4994 6241 6243 28
4995 6241 6244 28
4996 6241 6245 28
4997 6246 6247 28
4998 6246 6248 28
4999 6246 6249 28
5000 6246 6250 28
5001 6251 6252 28
5002 6251 6253 28
5003 6251 6254 28
5004 6251 6255 28
5005 6256 6257 28
5006 6256 6258 28
5007 6256 6259 28
5008 6256 6260 28
5009 6261 6262 28
5010 6261 6263 28
5011 6261 6264 28
5012 6261 6265 28
5013 6266 6267 28
5014 6266 6268 28
5015 6266 6269 28
5016 6266 6270 28
5017 6271 6272 28
5018 6271 6273 28
5019 6271 6274 28
5020 6271 6275 28
5021 6276 6277 28
5022 6276 6278 28
5023 6276 6279 28
5024 6276 6280 28
5025 6281 6282 28
5026 6281 6283 28
5027 6281 6284 28
5028 6281 6285 28
5029 6286 6287 28
5030 6286 6288 28
5031 6286 6289 28
5032 6286 6290 28
5033 6291 6292 28
5034 6291 6293 28
5035 6291 6294 28
5036 6291 6295 28
5037 6296 6297 28
5038 6296 6298 28
5039 6296 6299 28
5040 6296 6300 28
5041 6301 6302 28
5042 6301 6303 28
5043 6301 6304 28
5044 6301 6305 28
5045 6306 6307 28
5046 6306 6308 28
5047 6306 6309 28
5048 6306 6310 28
5049 6311 6312 28
5050 6311 6313 28
5051 6311 6314 28
5052 6311 6315 28
5053 6316 6317 28
5054 6316 6318 28
5055 6316 6319 28
5056 6316 6320 28
5057 6321 6322 28
5058 6321 6323 28
5059 6321 6324 28
5060 6321 6325 28
5061 6326 6327 28
5062 6326 6328 28
5063 6326 6329 28
5064 6326 6330 28
5065 6331 6332 28
5066 6331 6333 28
5067 6331 6334 28
5068 6331 6335 28
5069 6336 6337 28
5070 6336 6338 28
5071 6336 6339 28
5072 6336 6340 28
5073 6341 6342 28
5074 6341 6343 28
5075 6341 6344 28
5076 6341 6345 28
5077 6346 6347 28
5078 6346 6348 28
5079 6346 6349 28
5080 6346 6350 28
5081 6351 6352 28
5082 6351 6353 28
5083 6351 6354 28
5084 6351 6355 28
5085 6356 6357 28
5086 6356 6358 28
5087 6356 6359 28
5088 6356 6360 28
5089 6361 6362 28
5090 6361 6363 28
5091 6361 6364 28
5092 6361 6365 28
5093 6366 6367 28
5094 6366 6368 28
5095 6366 6369 28
5096 6366 6370 28
5097 6371 6372 28
5098 6371 6373 28
5099 6371 6374 28
5100 6371 6375 28
5101 6376 6377 28
5102 6376 6378 28
5103 6376 6379 28
5104 6376 6380 28
5105 6381 6382 28
5106 6381 6383 28
5107 6381 6384 28
5108 6381 6385 28
5109 6386 6387 28
5110 6386 6388 28
5111 6386 6389 28
5112 6386 6390 28
5113 6391 6392 28
5114 6391 6393 28
5115 6391 6394 28
5116 6391 6395 28
5117 6396 6397 28
5118 6396 6398 28
5119 6396 6399 28
5120 6396 6400 28
5121 6401 6402 28
5122 6401 6403 28
5123 6401 6404 28
5124 6401 6405 28
5125 6406 6407 28
5126 6406 6408 28
5127 6406 6409 28
5128 6406 6410 28
5129 6411 6412 28
5130 6411 6413 28
5131 6411 6414 28
5132 6411 6415 28
5133 6416 6417 28
5134 6416 6418 28
5135 6416 6419 28
5136 6416 6420 28
5137 6421 6422 28
5138 6421 6423 28
5139 6421 6424 28
5140 6421 6425 28
5141 6426 6427 28
5142 6426 6428 28
5143 6426 6429 28
5144 6426 6430 28
5145 6431 6432 28
5146 6431 6433 28
5147 6431 6434 28
5148 6431 6435 28
5149 6436 6437 28
5150 6436 6438 28
5151 6436 6439 28
5152 6436 6440 28
5153 6441 6442 28
5154 6441 6443 28
5155 6441 6444 28
5156 6441 6445 28
5157 6446 6447 28
5158 6446 6448 28
5159 6446 6449 28
5160 6446 6450 28
5161 6451 6452 28
5162 6451 6453 28
5163 6451 6454 28
5164 6451 6455 28
5165 6456 6457 28
5166 6456 6458 28
5167 6456 6459 28
5168 6456 6460 28
5169 6461 6462 28
5170 6461 6463 28
5171 6461 6464 28
5172 6461 6465 28
5173 6466 6467 28
5174 6466 6468 28
5175 6466 6469 28
5176 6466 6470 28
5177 6471 6472 28
5178 6471 6473 28
5179 6471 6474 28
5180 6471 6475 28
5181 6476 6477 28
5182 6476 6478 28
5183 6476 6479 28
5184 6476 6480 28
5185 6481 6482 28
5186 6481 6483 28
5187 6481 6484 28
5188 6481 6485 28
5189 6486 6487 28
5190 6486 6488 28
5191 6486 6489 28
5192 6486 6490 28
5193 6491 6492 28
5194 6491 6493 28
5195 6491 6494 28
5196 6491 6495 28
5197 6496 6497 28
5198 6496 6498 28
5199 6496 6499 28
5200 6496 6500 28
5201 6501 6502 28
5202 6501 6503 28
5203 6501 6504 28
5204 6501 6505 28
5205 6506 6507 28
5206 6506 6508 28
5207 6506 6509 28
5208 6506 6510 28
5209 6511 6512 28
5210 6511 6513 28
5211 6511 6514 28
5212 6511 6515 28
5213 6516 6517 28
5214 6516 6518 28
5215 6516 6519 28
5216 6516 6520 28
5217 6521 6522 28
5218 6521 6523 28
5219 6521 6524 28
5220 6521 6525 28
5221 6526 6527 28
5222 6526 6528 28
5223 6526 6529 28
5224 6526 6530 28
5225 6531 6532 28
5226 6531 6533 28
5227 6531 6534 28
5228 6531 6535 28
5229 6536 6537 28
5230 6536 6538 28
5231 6536 6539 28
5232 6536 6540 28
5233 6541 6542 28
5234 6541 6543 28
5235 6541 6544 28
5236 6541 6545 28
5237 6546 6547 28
5238 6546 6548 28
5239 6546 6549 28
5240 6546 6550 28
5241 6551 6552 28
5242 6551 6553 28
5243 6551 6554 28
5244 6551 6555 28
5245 6556 6557 28
5246 6556 6558 28
5247 6556 6559 28
5248 6556 6560 28
5249 6561 6562 28
5250 6561 6563 28
5251 6561 6564 28
5252 6561 6565 28
5253 6566 6567 28
5254 6566 6568 28
5255 6566 6569 28
5256 6566 6570 28
5257 6571 6572 28
5258 6571 6573 28
5259 6571 6574 28
5260 6571 6575 28
5261 6576 6577 28
5262 6576 6578 28
5263 6576 6579 28
5264 6576 6580 28
5265 6581 6582 28
5266 6581 6583 28
5267 6581 6584 28
5268 6581 6585 28
5269 6586 6587 28
5270 6586 6588 28
5271 6586 6589 28
5272 6586 6590 28
5273 6591 6592 28
5274 6591 6593 28
5275 6591 6594 28
5276 6591 6595 28
5277 6596 6597 28
5278 6596 6598 28
5279 6596 6599 28
5280 6596 6600 28
5281 6601 6602 28
5282 6601 6603 28
5283 6601 6604 28
5284 6601 6605 28
5285 6606 6607 28
5286 6606 6608 28
5287 6606 6609 28
5288 6606 6610 28
5289 6611 6612 28
5290 6611 6613 28
5291 6611 6614 28
5292 6611 6615 28
5293 6616 6617 28
5294 6616 6618 28
5295 6616 6619 28
5296 6616 6620 28
5297 6621 6622 28
5298 6621 6623 28
5299 6621 6624 28
5300 6621 6625 28
5301 6626 6627 28
5302 6626 6628 28
5303 6626 6629 28
5304 6626 6630 28
5305 6631 6632 28
5306 6631 6633 28
5307 6631 6634 28
5308 6631 6635 28
5309 6636 6637 28
5310 6636 6638 28
5311 6636 6639 28
5312 6636 6640 28
5313 6641 6642 28
5314 6641 6643 28
5315 6641 6644 28
5316 6641 6645 28
5317 6646 6647 28
5318 6646 6648 28
5319 6646 6649 28
5320 6646 6650 28
5321 6651 6652 28
5322 6651 6653 28
5323 6651 6654 28
5324 6651 6655 28
5325 6656 6657 28
5326 6656 6658 28
5327 6656 6659 28
5328 6656 6660 28
5329 6661 6662 28
5330 6661 6663 28
5331 6661 6664 28
5332 6661 6665 28
5333 6666 6667 28
5334 6666 6668 28
5335 6666 6669 28
5336 6666 6670 28
5337 6671 6672 28
5338 6671 6673 28
5339 6671 6674 28
5340 6671 6675 28
5341 6676 6677 28
5342 6676 6678 28
5343 6676 6679 28
5344 6676 6680 28
5345 6681 6682 28
5346 6681 6683 28
5347 6681 6684 28
5348 6681 6685 28
5349 6686 6687 28
5350 6686 6688 28
5351 6686 6689 28
5352 6686 6690 28
5353 6691 6692 28
5354 6691 6693 28
5355 6691 6694 28
5356 6691 6695 28
5357 6696 6697 28
5358 6696 6698 28
5359 6696 6699 28
5360 6696 6700 28
5361 6701 6702 28
5362 6701 6703 28
5363 6701 6704 28
5364 6701 6705 28
5365 6706 6707 28
5366 6706 6708 28
5367 6706 6709 28
5368 6706 6710 28
5369 6711 6712 28
5370 6711 6713 28
5371 6711 6714 28
5372 6711 6715 28
5373 6716 6717 28
5374 6716 6718 28
5375 6716 6719 28
5376 6716 6720 28
5377 6721 6722 28
5378 6721 6723 28
5379 6721 6724 28
5380 6721 6725 28
5381 6726 6727 28
5382 6726 6728 28
5383 6726 6729 28
5384 6726 6730 28
5385 6731 6732 28
5386 6731 6733 28
5387 6731 6734 28
5388 6731 6735 28
5389 6736 6737 28
5390 6736 6738 28
5391 6736 6739 28
5392 6736 6740 28
5393 6741 6742 28
5394 6741 6743 28
5395 6741 6744 28
5396 6741 6745 28
5397 6746 6747 28
5398 6746 6748 28
5399 6746 6749 28
5400 6746 6750 28
5401 6751 6752 28
5402 6751 6753 28
5403 6751 6754 28
5404 6751 6755 28
5405 6756 6757 28
5406 6756 6758 28
5407 6756 6759 28
5408 6756 6760 28
5409 6761 6762 28
5410 6761 6763 28
5411 6761 6764 28
5412 6761 6765 28
5413 6766 6767 28
5414 6766 6768 28
5415 6766 6769 28
5416 6766 6770 28
5417 6771 6772 28
5418 6771 6773 28
5419 6771 6774 28
5420 6771 6775 28
5421 6776 6777 28
5422 6776 6778 28
5423 6776 6779 28
5424 6776 6780 28
5425 6781 6782 28
5426 6781 6783 28
5427 6781 6784 28
5428 6781 6785 28
5429 6786 6787 28
5430 6786 6788 28
5431 6786 6789 28
5432 6786 6790 28
5433 6791 6792 28
5434 6791 6793 28
5435 6791 6794 28
5436 6791 6795 28
5437 6796 6797 28
5438 6796 6798 28
5439 6796 6799 28
5440 6796 6800 28
5441 6801 6802 28
5442 6801 6803 28
5443 6801 6804 28
5444 6801 6805 28
5445 6806 6807 28
5446 6806 6808 28
5447 6806 6809 28
5448 6806 6810 28
5449 6811 6812 28
5450 6811 6813 28
5451 6811 6814 28
5452 6811 6815 28
5453 6816 6817 28
5454 6816 6818 28
5455 6816 6819 28
5456 6816 6820 28
5457 6821 6822 28
5458 6821 6823 28
5459 6821 6824 28
5460 6821 6825 28
5461 6826 6827 28
5462 6826 6828 28
5463 6826 6829 28
5464 6826 6830 28
5465 6831 6832 28
5466 6831 6833 28
5467 6831 6834 28
5468 6831 6835 28
5469 6836 6837 28
5470 6836 6838 28
5471 6836 6839 28
5472 6836 6840 28
5473 6841 6842 28
5474 6841 6843 28
5475 6841 6844 28
5476 6841 6845 28
5477 6846 6847 28
5478 6846 6848 28
5479 6846 6849 28
5480 6846 6850 28
5481 6851 6852 28
5482 6851 6853 28
5483 6851 6854 28
5484 6851 6855 28
5485 6856 6857 28
5486 6856 6858 28
5487 6856 6859 28
5488 6856 6860 28
5489 6861 6862 28
5490 6861 6863 28
5491 6861 6864 28
5492 6861 6865 28
5493 6866 6867 28
5494 6866 6868 28
5495 6866 6869 28
5496 6866 6870 28
5497 6871 6872 28
5498 6871 6873 28
5499 6871 6874 28
5500 6871 6875 28
5501 6876 6877 28
5502 6876 6878 28
5503 6876 6879 28
5504 6876 6880 28
5505 6881 6882 28
5506 6881 6883 28
5507 6881 6884 28
5508 6881 6885 28
5509 6886 6887 28
5510 6886 6888 28
5511 6886 6889 28
5512 6886 6890 28
5513 6891 6892 28
5514 6891 6893 28
5515 6891 6894 28
5516 6891 6895 28
5517 6896 6897 28
5518 6896 6898 28
5519 6896 6899 28
5520 6896 6900 28
5521 6901 6902 28
5522 6901 6903 28
5523 6901 6904 28
5524 6901 6905 28
5525 6906 6907 28
5526 6906 6908 28
5527 6906 6909 28
5528 6906 6910 28
5529 6911 6912 28
5530 6911 6913 28
5531 6911 6914 28
5532 6911 6915 28
5533 6916 6917 28
5534 6916 6918 28
5535 6916 6919 28
5536 6916 6920 28
5537 6921 6922 28
5538 6921 6923 28
5539 6921 6924 28
5540 6921 6925 28
5541 6926 6927 28
5542 6926 6928 28
5543 6926 6929 28
5544 6926 6930 28
5545 6931 6932 28
5546 6931 6933 28
5547 6931 6934 28
5548 6931 6935 28
5549 6936 6937 28
5550 6936 6938 28
5551 6936 6939 28
5552 6936 6940 28
5553 6941 6942 28
5554 6941 6943 28
5555 6941 6944 28
5556 6941 6945 28
5557 6946 6947 28
5558 6946 6948 28
5559 6946 6949 28
5560 6946 6950 28
5561 6951 6952 28
5562 6951 6953 28
5563 6951 6954 28
5564 6951 6955 28
5565 6956 6957 28
5566 6956 6958 28
5567 6956 6959 28
5568 6956 6960 28
5569 6961 6962 28
5570 6961 6963 28
5571 6961 6964 28
5572 6961 6965 28
5573 6966 6967 28
5574 6966 6968 28
5575 6966 6969 28
5576 6966 6970 28
5577 6971 6972 28
5578 6971 6973 28
5579 6971 6974 28
5580 6971 6975 28
5581 6976 6977 28
5582 6976 6978 28
5583 6976 6979 28
5584 6976 6980 28
5585 6981 6982 28
5586 6981 6983 28
5587 6981 6984 28
5588 6981 6985 28
5589 6986 6987 28
5590 6986 6988 28
5591 6986 6989 28
5592 6986 6990 28
5593 6991 6992 28
5594 6991 6993 28
5595 6991 6994 28
5596 6991 6995 28
5597 6996 6997 28
5598 6996 6998 28
5599 6996 6999 28
5600 6996 7000 28
5601 7001 7002 28
5602 7001 7003 28
5603 7001 7004 28
5604 7001 7005 28
5605 7006 7007 28
5606 7006 7008 28
5607 7006 7009 28
5608 7006 7010 28
5609 7011 7012 28
5610 7011 7013 28
5611 7011 7014 28
5612 7011 7015 28
5613 7016 7017 28
5614 7016 7018 28
5615 7016 7019 28
5616 7016 7020 28
5617 7021 7022 28
5618 7021 7023 28
5619 7021 7024 28
5620 7021 7025 28
5621 7026 7027 28
5622 7026 7028 28
5623 7026 7029 28
5624 7026 7030 28
5625 7031 7032 28
5626 7031 7033 28
5627 7031 7034 28
5628 7031 7035 28
5629 7036 7037 28
5630 7036 7038 28
5631 7036 7039 28
5632 7036 7040 28
5633 7041 7042 28
5634 7041 7043 28
5635 7041 7044 28
5636 7041 7045 28
5637 7046 7047 28
5638 7046 7048 28
5639 7046 7049 28
5640 7046 7050 28
5641 7051 7052 28
5642 7051 7053 28
5643 7051 7054 28
5644 7051 7055 28
5645 7056 7057 28
5646 7056 7058 28
5647 7056 7059 28
5648 7056 7060 28
5649 7061 7062 28
5650 7061 7063 28
5651 7061 7064 28
5652 7061 7065 28
5653 7066 7067 28
5654 7066 7068 28
5655 7066 7069 28
5656 7066 7070 28
5657 7071 7072 28
5658 7071 7073 28
5659 7071 7074 28
5660 7071 7075 28
5661 7076 7077 28
5662 7076 7078 28
5663 7076 7079 28
5664 7076 7080 28
5665 7081 7082 28
5666 7081 7083 28
5667 7081 7084 28
5668 7081 7085 28
5669 7086 7087 28
5670 7086 7088 28
5671 7086 7089 28
5672 7086 7090 28
5673 7091 7092 28
5674 7091 7093 28
5675 7091 7094 28
5676 7091 7095 28
5677 7096 7097 28
5678 7096 7098 28
5679 7096 7099 28
5680 7096 7100 28
5681 7101 7102 28
5682 7101 7103 28
5683 7101 7104 28
5684 7101 7105 28
5685 7106 7107 28
5686 7106 7108 28
5687 7106 7109 28
5688 7106 7110 28
5689 7111 7112 28
5690 7111 7113 28
5691 7111 7114 28
5692 7111 7115 28
5693 7116 7117 28
5694 7116 7118 28
5695 7116 7119 28
5696 7116 7120 28
5697 7121 7122 28
5698 7121 7123 28
5699 7121 7124 28
5700 7121 7125 28
5701 7126 7127 28
5702 7126 7128 28
5703 7126 7129 28
5704 7126 7130 28
5705 7131 7132 28
5706 7131 7133 28
5707 7131 7134 28
5708 7131 7135 28
5709 7136 7137 28
5710 7136 7138 28
5711 7136 7139 28
5712 7136 7140 28
5713 7141 7142 28
5714 7141 7143 28
5715 7141 7144 28
5716 7141 7145 28
5717 7146 7147 28
5718 7146 7148 28
5719 7146 7149 28
5720 7146 7150 28
5721 7151 7152 28
5722 7151 7153 28
5723 7151 7154 28
5724 7151 7155 28
5725 7156 7157 28
5726 7156 7158 28
5727 7156 7159 28
5728 7156 7160 28
5729 7161 7162 28
5730 7161 7163 28
5731 7161 7164 28
5732 7161 7165 28
5733 7166 7167 28
5734 7166 7168 28
5735 7166 7169 28
5736 7166 7170 28
5737 7171 7172 28
5738 7171 7173 28
5739 7171 7174 28
5740 7171 7175 28
5741 7176 7177 28
5742 7176 7178 28
5743 7176 7179 28
5744 7176 7180 28
5745 7181 7182 28
5746 7181 7183 28
5747 7181 7184 28
5748 7181 7185 28
5749 7186 7187 28
5750 7186 7188 28
5751 7186 7189 28
5752 7186 7190 28
5753 7191 7192 28
5754 7191 7193 28
5755 7191 7194 28
5756 7191 7195 28
5757 7196 7197 28
5758 7196 7198 28
5759 7196 7199 28
5760 7196 7200 28
5761 7201 7202 28
5762 7201 7203 28
5763 7201 7204 28
5764 7201 7205 28
5765 7206 7207 28
5766 7206 7208 28
5767 7206 7209 28
5768 7206 7210 28
5769 7211 7212 28
5770 7211 7213 28
5771 7211 7214 28
5772 7211 7215 28
5773 7216 7217 28
5774 7216 7218 28
5775 7216 7219 28
5776 7216 7220 28
5777 7221 7222 28
5778 7221 7223 28
5779 7221 7224 28
5780 7221 7225 28
5781 7226 7227 28
5782 7226 7228 28
5783 7226 7229 28
5784 7226 7230 28
5785 7231 7232 28
5786 7231 7233 28
5787 7231 7234 28
5788 7231 7235 28
5789 7236 7237 28
5790 7236 7238 28
5791 7236 7239 28
5792 7236 7240 28
5793 7241 7242 28
5794 7241 7243 28
5795 7241 7244 28
5796 7241 7245 28
5797 7246 7247 28
5798 7246 7248 28
5799 7246 7249 28
5800 7246 7250 28
5801 7251 7252 28
5802 7251 7253 28
5803 7251 7254 28
5804 7251 7255 28
5805 7256 7257 28
5806 7256 7258 28
5807 7256 7259 28
5808 7256 7260 28
5809 7261 7262 28
5810 7261 7263 28
5811 7261 7264 28
5812 7261 7265 28
5813 7266 7267 28
5814 7266 7268 28
5815 7266 7269 28
5816 7266 7270 28
5817 7271 7272 28
5818 7271 7273 28
5819 7271 7274 28
5820 7271 7275 28
5821 7276 7277 28
5822 7276 7278 28
5823 7276 7279 28
5824 7276 7280 28
5825 7281 7282 28
5826 7281 7283 28
5827 7281 7284 28
5828 7281 7285 28
5829 7286 7287 28
5830 7286 7288 28
5831 7286 7289 28
5832 7286 7290 28
5833 7291 7292 28
5834 7291 7293 28
5835 7291 7294 28
5836 7291 7295 28
5837 7296 7297 28
5838 7296 7298 28
5839 7296 7299 28
5840 7296 7300 28
5841 7301 7302 28
5842 7301 7303 28
5843 7301 7304 28
5844 7301 7305 28
5845 7306 7307 28
5846 7306 7308 28
5847 7306 7309 28
5848 7306 7310 28
5849 7311 7312 28
5850 7311 7313 28
5851 7311 7314 28
5852 7311 7315 28
5853 7316 7317 28
5854 7316 7318 28
5855 7316 7319 28
5856 7316 7320 28
5857 7321 7322 28
5858 7321 7323 28
5859 7321 7324 28
5860 7321 7325 28
5861 7326 7327 28
5862 7326 7328 28
5863 7326 7329 28
5864 7326 7330 28
5865 7331 7332 28
5866 7331 7333 28
5867 7331 7334 28
5868 7331 7335 28
5869 7336 7337 28
5870 7336 7338 28
5871 7336 7339 28
5872 7336 7340 28
5873 7341 7342 28
5874 7341 7343 28
5875 7341 7344 28
5876 7341 7345 28
5877 7346 7347 28
5878 7346 7348 28
5879 7346 7349 28
5880 7346 7350 28
5881 7351 7352 28
5882 7351 7353 28
5883 7351 7354 28
5884 7351 7355 28
5885 7356 7357 28
5886 7356 7358 28
5887 7356 7359 28
5888 7356 7360 28
5889 7361 7362 28
5890 7361 7363 28
5891 7361 7364 28
5892 7361 7365 28
5893 7366 7367 28
5894 7366 7368 28
5895 7366 7369 28
5896 7366 7370 28
5897 7371 7372 28
5898 7371 7373 28
5899 7371 7374 28
5900 7371 7375 28
5901 7376 7377 28
5902 7376 7378 28
5903 7376 7379 28
5904 7376 7380 28
5905 7381 7382 28
5906 7381 7383 28
5907 7381 7384 28
5908 7381 7385 28
5909 7386 7387 28
5910 7386 7388 28
5911 7386 7389 28
5912 7386 7390 28
5913 7391 7392 28
5914 7391 7393 28
5915 7391 7394 28
5916 7391 7395 28
5917 7396 7397 28
5918 7396 7398 28
5919 7396 7399 28
5920 7396 7400 28
5921 7401 7402 28
5922 7401 7403 28
5923 7401 7404 28
5924 7401 7405 28
5925 7406 7407 28
5926 7406 7408 28
5927 7406 7409 28
5928 7406 7410 28
5929 7411 7412 28
5930 7411 7413 28
5931 7411 7414 28
5932 7411 7415 28
5933 7416 7417 28
5934 7416 7418 28
5935 7416 7419 28
5936 7416 7420 28
5937 7421 7422 28
5938 7421 7423 28
5939 7421 7424 28
5940 7421 7425 28
5941 7426 7427 28
5942 7426 7428 28
5943 7426 7429 28
5944 7426 7430 28
5945 7431 7432 28
5946 7431 7433 28
5947 7431 7434 28
5948 7431 7435 28
5949 7436 7437 28
5950 7436 7438 28
5951 7436 7439 28
5952 7436 7440 28
5953 7441 7442 28
5954 7441 7443 28
5955 7441 7444 28
5956 7441 7445 28
5957 7446 7447 28
5958 7446 7448 28
5959 7446 7449 28
5960 7446 7450 28
5961 7451 7452 28
5962 7451 7453 28
5963 7451 7454 28
5964 7451 7455 28
5965 7456 7457 28
5966 7456 7458 28
5967 7456 7459 28
5968 7456 7460 28
5969 7461 7462 28
5970 7461 7463 28
5971 7461 7464 28
5972 7461 7465 28
5973 7466 7467 28
5974 7466 7468 28
5975 7466 7469 28
5976 7466 7470 28
5977 7471 7472 28
5978 7471 7473 28
5979 7471 7474 28
5980 7471 7475 28
5981 7476 7477 28
5982 7476 7478 28
5983 7476 7479 28
5984 7476 7480 28
5985 7481 7482 28
5986 7481 7483 28
5987 7481 7484 28
5988 7481 7485 28
5989 7486 7487 28
5990 7486 7488 28
5991 7486 7489 28
5992 7486 7490 28
5993 7491 7492 28
5994 7491 7493 28
5995 7491 7494 28
5996 7491 7495 28
5997 7496 7497 28
5998 7496 7498 28
5999 7496 7499 28
6000 7496 7500 28
6001 7501 7502 28
6002 7501 7503 28
6003 7501 7504 28
6004 7501 7505 28
6005 7506 7507 28
6006 7506 7508 28
6007 7506 7509 28
6008 7506 7510 28
6009 7511 7512 28
6010 7511 7513 28
6011 7511 7514 28
6012 7511 7515 28
6013 7516 7517 28
6014 7516 7518 28
6015 7516 7519 28
6016 7516 7520 28
6017 7521 7522 28
6018 7521 7523 28
6019 7521 7524 28
6020 7521 7525 28
6021 7526 7527 28
6022 7526 7528 28
6023 7526 7529 28
6024 7526 7530 28
6025 7531 7532 28
6026 7531 7533 28
6027 7531 7534 28
6028 7531 7535 28
6029 7536 7537 28
6030 7536 7538 28
6031 7536 7539 28
6032 7536 7540 28
6033 7541 7542 28
6034 7541 7543 28
6035 7541 7544 28
6036 7541 7545 28
6037 7546 7547 28
6038 7546 7548 28
6039 7546 7549 28
6040 7546 7550 28
6041 7551 7552 28
6042 7551 7553 28
6043 7551 7554 28
6044 7551 7555 28
6045 7556 7557 28
6046 7556 7558 28
6047 7556 7559 28
6048 7556 7560 28
6049 7561 7562 28
6050 7561 7563 28
6051 7561 7564 28
6052 7561 7565 28
6053 7566 7567 28
6054 7566 7568 28
6055 7566 7569 28
6056 7566 7570 28
6057 7571 7572 28
6058 7571 7573 28
6059 7571 7574 28
6060 7571 7575 28
6061 7576 7577 28
6062 7576 7578 28
6063 7576 7579 28
6064 7576 7580 28
6065 7581 7582 28
6066 7581 7583 28
6067 7581 7584 28
6068 7581 7585 28
6069 7586 7587 28
6070 7586 7588 28
6071 7586 7589 28
6072 7586 7590 28
6073 7591 7592 28
6074 7591 7593 28
6075 7591 7594 28
6076 7591 7595 28
6077 7596 7597 28
6078 7596 7598 28
6079 7596 7599 28
6080 7596 7600 28
6081 7601 7602 28
6082 7601 7603 28
6083 7601 7604 28
6084 7601 7605 28
6085 7606 7607 28
6086 7606 7608 28
6087 7606 7609 28
6088 7606 7610 28
6089 7611 7612 28
6090 7611 7613 28
6091 7611 7614 28
6092 7611 7615 28
6093 7616 7617 28
6094 7616 7618 28
6095 7616 7619 28
6096 7616 7620 28
6097 7621 7622 28
6098 7621 7623 28
6099 7621 7624 28
6100 7621 7625 28
6101 7626 7627 28
6102 7626 7628 28
6103 7626 7629 28
6104 7626 7630 28
6105 7631 7632 28
6106 7631 7633 28
6107 7631 7634 28
6108 7631 7635 28
6109 7636 7637 28
6110 7636 7638 28
6111 7636 7639 28
6112 7636 7640 28
6113 7641 7642 28
6114 7641 7643 28
6115 7641 7644 28
6116 7641 7645 28
6117 7646 7647 28
6118 7646 7648 28
6119 7646 7649 28
6120 7646 7650 28
6121 7651 7652 28
6122 7651 7653 28
6123 7651 7654 28
6124 7651 7655 28
6125 7656 7657 28
6126 7656 7658 28
6127 7656 7659 28
6128 7656 7660 28
6129 7661 7662 28
6130 7661 7663 28
6131 7661 7664 28
6132 7661 7665 28
6133 7666 7667 28
6134 7666 7668 28
6135 7666 7669 28
6136 7666 7670 28
6137 7671 7672 28
6138 7671 7673 28
6139 7671 7674 28
6140 7671 7675 28
6141 7676 7677 28
6142 7676 7678 28
6143 7676 7679 28
6144 7676 7680 28
6145 7681 7682 28
6146 7681 7683 28
6147 7681 7684 28
6148 7681 7685 28
6149 7686 7687 28
6150 7686 7688 28
6151 7686 7689 28
6152 7686 7690 28
6153 7691 7692 28
6154 7691 7693 28
6155 7691 7694 28
6156 7691 7695 28
6157 7696 7697 28
6158 7696 7698 28
6159 7696 7699 28
6160 7696 7700 28
6161 7701 7702 28
6162 7701 7703 28
6163 7701 7704 28
6164 7701 7705 28
6165 7706 7707 28
6166 7706 7708 28
6167 7706 7709 28
6168 7706 7710 28
6169 7711 7712 28
6170 7711 7713 28
6171 7711 7714 28
6172 7711 7715 28
6173 7716 7717 28
6174 7716 7718 28
6175 7716 7719 28
6176 7716 7720 28
6177 7721 7722 28
6178 7721 7723 28
6179 7721 7724 28
6180 7721 7725 28
6181 7726 7727 28
6182 7726 7728 28
6183 7726 7729 28
6184 7726 7730 28
6185 7731 7732 28
6186 7731 7733 28
6187 7731 7734 28
6188 7731 7735 28
6189 7736 7737 28
6190 7736 7738 28
6191 7736 7739 28
6192 7736 7740 28
6193 7741 7742 28
6194 7741 7743 28
6195 7741 7744 28
6196 7741 7745 28
6197 7746 7747 28
6198 7746 7748 28
6199 7746 7749 28
6200 7746 7750 28
6201 7751 7752 28
6202 7751 7753 28
6203 7751 7754 28
6204 7751 7755 28
6205 7756 7757 28
6206 7756 7758 28
6207 7756 7759 28
6208 7756 7760 28
6209 7761 7762 28
6210 7761 7763 28
6211 7761 7764 28
6212 7761 7765 28
6213 7766 7767 28
6214 7766 7768 28
6215 7766 7769 28
6216 7766 7770 28
6217 7771 7772 28
6218 7771 7773 28
6219 7771 7774 28
6220 7771 7775 28
6221 7776 7777 28
6222 7776 7778 28
6223 7776 7779 28
6224 7776 7780 28
6225 7781 7782 28
6226 7781 7783 28
6227 7781 7784 28
6228 7781 7785 28
6229 7786 7787 28
6230 7786 7788 28
6231 7786 7789 28
6232 7786 7790 28
6233 7791 7792 28
6234 7791 7793 28
6235 7791 7794 28
6236 7791 7795 28
6237 7796 7797 28
6238 7796 7798 28
6239 7796 7799 28
6240 7796 7800 28
6241 7801 7802 28
6242 7801 7803 28
6243 7801 7804 28
6244 7801 7805 28
6245 7806 7807 28
6246 7806 7808 28
6247 7806 7809 28
6248 7806 7810 28
6249 7811 7812 28
6250 7811 7813 28
6251 7811 7814 28
6252 7811 7815 28
6253 7816 7817 28
6254 7816 7818 28
6255 7816 7819 28
6256 7816 7820 28
6257 7821 7822 28
6258 7821 7823 28
6259 7821 7824 28
6260 7821 7825 28
6261 7826 7827 28
6262 7826 7828 28
6263 7826 7829 28
6264 7826 7830 28
6265 7831 7832 28
6266 7831 7833 28
6267 7831 7834 28
6268 7831 7835 28
6269 7836 7837 28
6270 7836 7838 28
6271 7836 7839 28
6272 7836 7840 28
6273 7841 7842 28
6274 7841 7843 28
6275 7841 7844 28
6276 7841 7845 28
6277 7846 7847 28
6278 7846 7848 28
6279 7846 7849 28
6280 7846 7850 28
6281 7851 7852 28
6282 7851 7853 28
6283 7851 7854 28
6284 7851 7855 28
6285 7856 7857 28
6286 7856 7858 28
6287 7856 7859 28
6288 7856 7860 28
6289 7861 7862 28
6290 7861 7863 28
6291 7861 7864 28
6292 7861 7865 28
6293 7866 7867 28
6294 7866 7868 28
6295 7866 7869 28
6296 7866 7870 28
6297 7871 7872 28
6298 7871 7873 28
6299 7871 7874 28
6300 7871 7875 28
6301 7876 7877 28
6302 7876 7878 28
6303 7876 7879 28
6304 7876 7880 28
6305 7881 7882 28
6306 7881 7883 28
6307 7881 7884 28
6308 7881 7885 28
6309 7886 7887 28
6310 7886 7888 28
6311 7886 7889 28
6312 7886 7890 28
6313 7891 7892 28
6314 7891 7893 28
6315 7891 7894 28
6316 7891 7895 28
6317 7896 7897 28
6318 7896 7898 28
6319 7896 7899 28
6320 7896 7900 28
6321 7901 7902 28
6322 7901 7903 28
6323 7901 7904 28
6324 7901 7905 28
6325 7906 7907 28
6326 7906 7908 28
6327 7906 7909 28
6328 7906 7910 28
6329 7911 7912 28
6330 7911 7913 28
6331 7911 7914 28
6332 7911 7915 28
6333 7916 7917 28
6334 7916 7918 28
6335 7916 7919 28
6336 7916 7920 28
6337 7921 7922 28
6338 7921 7923 28
6339 7921 7924 28
6340 7921 7925 28
6341 7926 7927 28
6342 7926 7928 28
6343 7926 7929 28
6344 7926 7930 28
6345 7931 7932 28
6346 7931 7933 28
6347 7931 7934 28
6348 7931 7935 28
6349 7936 7937 28
6350 7936 7938 28
6351 7936 7939 28
6352 7936 7940 28
6353 7941 7942 28
6354 7941 7943 28
6355 7941 7944 28
6356 7941 7945 28
6357 7946 7947 28
6358 7946 7948 28
6359 7946 7949 28
6360 7946 7950 28
6361 7951 7952 28
6362 7951 7953 28
6363 7951 7954 28
6364 7951 7955 28
6365 7956 7957 28
6366 7956 7958 28
6367 7956 7959 28
6368 7956 7960 28
6369 7961 7962 28
6370 7961 7963 28
6371 7961 7964 28
6372 7961 7965 28
6373 7966 7967 28
6374 7966 7968 28
6375 7966 7969 28
6376 7966 7970 28
6377 7971 7972 28
6378 7971 7973 28
6379 7971 7974 28
6380 7971 7975 28
6381 7976 7977 28
6382 7976 7978 28
6383 7976 7979 28
6384 7976 7980 28
6385 7981 7982 28
6386 7981 7983 28
6387 7981 7984 28
6388 7981 7985 28
6389 7986 7987 28
6390 7986 7988 28
6391 7986 7989 28
6392 7986 7990 28
6393 7991 7992 28
6394 7991 7993 28
6395 7991 7994 28
6396 7991 7995 28
6397 7996 7997 28
6398 7996 7998 28
6399 7996 7999 28
6400 7996 8000 28
6401 8001 8002 28
6402 8001 8003 28
6403 8001 8004 28
6404 8001 8005 28
6405 8006 8007 28
6406 8006 8008 28
6407 8006 8009 28
6408 8006 8010 28
6409 8011 8012 28
6410 8011 8013 28
6411 8011 8014 28
6412 8011 8015 28
6413 8016 8017 28
6414 8016 8018 28
6415 8016 8019 28
6416 8016 8020 28
6417 8021 8022 28
6418 8021 8023 28
6419 8021 8024 28
6420 8021 8025 28
6421 8026 8027 28
6422 8026 8028 28
6423 8026 8029 28
6424 8026 8030 28
6425 8031 8032 28
6426 8031 8033 28
6427 8031 8034 28
6428 8031 8035 28
6429 8036 8037 28
6430 8036 8038 28
6431 8036 8039 28
6432 8036 8040 28
6433 8041 8042 28
6434 8041 8043 28
6435 8041 8044 28
6436 8041 8045 28
6437 8046 8047 28
6438 8046 8048 28
6439 8046 8049 28
6440 8046 8050 28
6441 8051 8052 28
6442 8051 8053 28
6443 8051 8054 28
6444 8051 8055 28
6445 8056 8057 28
6446 8056 8058 28
6447 8056 8059 28
6448 8056 8060 28
6449 8061 8062 28
6450 8061 8063 28
6451 8061 8064 28
6452 8061 8065 28
6453 8066 8067 28
6454 8066 8068 28
6455 8066 8069 28
6456 8066 8070 28
6457 8071 8072 28
6458 8071 8073 28
6459 8071 8074 28
6460 8071 8075 28
6461 8076 8077 28
6462 8076 8078 28
6463 8076 8079 28
6464 8076 8080 28
6465 8081 8082 28
6466 8081 8083 28
6467 8081 8084 28
6468 8081 8085 28
6469 8086 8087 28
6470 8086 8088 28
6471 8086 8089 28
6472 8086 8090 28
6473 8091 8092 28
6474 8091 8093 28
6475 8091 8094 28
6476 8091 8095 28
6477 8096 8097 28
6478 8096 8098 28
6479 8096 8099 28
6480 8096 8100 28
6481 8101 8102 28
6482 8101 8103 28
6483 8101 8104 28
6484 8101 8105 28
6485 8106 8107 28
6486 8106 8108 28
6487 8106 8109 28
6488 8106 8110 28
6489 8111 8112 28
6490 8111 8113 28
6491 8111 8114 28
6492 8111 8115 28
6493 8116 8117 28
6494 8116 8118 28
6495 8116 8119 28
6496 8116 8120 28
6497 8121 8122 28
6498 8121 8123 28
6499 8121 8124 28
6500 8121 8125 28
6501 8126 8127 28
6502 8126 8128 28
6503 8126 8129 28
6504 8126 8130 28
6505 8131 8132 28
6506 8131 8133 28
6507 8131 8134 28
6508 8131 8135 28
6509 8136 8137 28
6510 8136 8138 28
6511 8136 8139 28
6512 8136 8140 28
6513 8141 8142 28
6514 8141 8143 28
6515 8141 8144 28
6516 8141 8145 28
6517 8146 8147 28
6518 8146 8148 28
6519 8146 8149 28
6520 8146 8150 28
6521 8151 8152 28
6522 8151 8153 28
6523 8151 8154 28
6524 8151 8155 28
6525 8156 8157 28
6526 8156 8158 28
6527 8156 8159 28
6528 8156 8160 28
6529 8161 8162 28
6530 8161 8163 28
6531 8161 8164 28
6532 8161 8165 28
6533 8166 8167 28
6534 8166 8168 28
6535 8166 8169 28
6536 8166 8170 28
6537 8171 8172 28
6538 8171 8173 28
6539 8171 8174 28
6540 8171 8175 28
6541 8176 8177 28
6542 8176 8178 28
6543 8176 8179 28
6544 8176 8180 28
6545 8181 8182 28
6546 8181 8183 28
6547 8181 8184 28
6548 8181 8185 28
6549 8186 8187 28
6550 8186 8188 28
6551 8186 8189 28
6552 8186 8190 28
6553 8191 8192 28
6554 8191 8193 28
6555 8191 8194 28
6556 8191 8195 28
6557 8196 8197 28
6558 8196 8198 28
6559 8196 8199 28
6560 8196 8200 28
6561 8201 8202 28
6562 8201 8203 28
6563 8201 8204 28
6564 8201 8205 28
6565 8206 8207 28
6566 8206 8208 28
6567 8206 8209 28
6568 8206 8210 28
6569 8211 8212 28
6570 8211 8213 28
6571 8211 8214 28
6572 8211 8215 28
6573 8216 8217 28
6574 8216 8218 28
6575 8216 8219 28
6576 8216 8220 28
6577 8221 8222 28
6578 8221 8223 28
6579 8221 8224 28
6580 8221 8225 28
6581 8226 8227 28
6582 8226 8228 28
6583 8226 8229 28
6584 8226 8230 28
6585 8231 8232 28
6586 8231 8233 28
6587 8231 8234 28
6588 8231 8235 28
6589 8236 8237 28
6590 8236 8238 28
6591 8236 8239 28
6592 8236 8240 28
6593 8241 8242 28
6594 8241 8243 28
6595 8241 8244 28
6596 8241 8245 28
6597 8246 8247 28
6598 8246 8248 28
6599 8246 8249 28
6600 8246 8250 28
6601 8251 8252 28
6602 8251 8253 28
6603 8251 8254 28
6604 8251 8255 28
6605 8256 8257 28
6606 8256 8258 28
6607 8256 8259 28
6608 8256 8260 28
6609 8261 8262 28
6610 8261 8263 28
6611 8261 8264 28
6612 8261 8265 28
6613 8266 8267 28
6614 8266 8268 28
6615 8266 8269 28
6616 8266 8270 28
6617 8271 8272 28
6618 8271 8273 28
6619 8271 8274 28
6620 8271 8275 28
6621 8276 8277 28
6622 8276 8278 28
6623 8276 8279 28
6624 8276 8280 28
6625 8281 8282 28
6626 8281 8283 28
6627 8281 8284 28
6628 8281 8285 28
6629 8286 8287 28
6630 8286 8288 28
6631 8286 8289 28
6632 8286 8290 28
6633 8291 8292 28
6634 8291 8293 28
6635 8291 8294 28
6636 8291 8295 28
6637 8296 8297 28
6638 8296 8298 28
6639 8296 8299 28
6640 8296 8300 28
6641 8301 8302 28
6642 8301 8303 28
6643 8301 8304 28
6644 8301 8305 28
6645 8306 8307 28
6646 8306 8308 28
6647 8306 8309 28
6648 8306 8310 28
6649 8311 8312 28
6650 8311 8313 28
6651 8311 8314 28
6652 8311 8315 28
6653 8316 8317 28
6654 8316 8318 28
6655 8316 8319 28
6656 8316 8320 28
6657 8321 8322 28
6658 8321 8323 28
6659 8321 8324 28
6660 8321 8325 28
6661 8326 8327 28
6662 8326 8328 28
6663 8326 8329 28
6664 8326 8330 28
6665 8331 8332 28
6666 8331 8333 28
6667 8331 8334 28
6668 8331 8335 28
6669 8336 8337 28
6670 8336 8338 28
6671 8336 8339 28
6672 8336 8340 28
6673 8341 8342 28
6674 8341 8343 28
6675 8341 8344 28
6676 8341 8345 28
6677 8346 8347 28
6678 8346 8348 28
6679 8346 8349 28
6680 8346 8350 28
6681 8351 8352 28
6682 8351 8353 28
6683 8351 8354 28
6684 8351 8355 28
6685 8356 8357 28
6686 8356 8358 28
6687 8356 8359 28
6688 8356 8360 28
6689 8361 8362 28
6690 8361 8363 28
6691 8361 8364 28
6692 8361 8365 28
6693 8366 8367 28
6694 8366 8368 28
6695 8366 8369 28
6696 8366 8370 28
6697 8371 8372 28
6698 8371 8373 28
6699 8371 8374 28
6700 8371 8375 28
6701 8376 8377 28
6702 8376 8378 28
6703 8376 8379 28
6704 8376 8380 28
6705 8381 8382 28
6706 8381 8383 28
6707 8381 8384 28
6708 8381 8385 28
6709 8386 8387 28
6710 8386 8388 28
6711 8386 8389 28
6712 8386 8390 28
6713 8391 8392 28
6714 8391 8393 28
6715 8391 8394 28
6716 8391 8395 28
6717 8396 8397 28
6718 8396 8398 28
6719 8396 8399 28
6720 8396 8400 28
6721 8401 8402 28
6722 8401 8403 28
6723 8401 8404 28
6724 8401 8405 28
6725 8406 8407 28
6726 8406 8408 28
6727 8406 8409 28
6728 8406 8410 28
6729 8411 8412 28
6730 8411 8413 28
6731 8411 8414 28
6732 8411 8415 28
6733 8416 8417 28
6734 8416 8418 28
6735 8416 8419 28
6736 8416 8420 28
6737 8421 8422 28
6738 8421 8423 28
6739 8421 8424 28
6740 8421 8425 28
6741 8426 8427 28
6742 8426 8428 28
6743 8426 8429 28
6744 8426 8430 28
6745 8431 8432 28
6746 8431 8433 28
6747 8431 8434 28
6748 8431 8435 28
6749 8436 8437 28
6750 8436 8438 28
6751 8436 8439 28
6752 8436 8440 28
6753 8441 8442 28
6754 8441 8443 28
6755 8441 8444 28
6756 8441 8445 28
6757 8446 8447 28
6758 8446 8448 28
6759 8446 8449 28
6760 8446 8450 28
6761 8451 8452 28
6762 8451 8453 28
6763 8451 8454 28
6764 8451 8455 28
6765 8456 8457 28
6766 8456 8458 28
6767 8456 8459 28
6768 8456 8460 28
6769 8461 8462 28
6770 8461 8463 28
6771 8461 8464 28
6772 8461 8465 28
6773 8466 8467 28
6774 8466 8468 28
6775 8466 8469 28
6776 8466 8470 28
6777 8471 8472 28
6778 8471 8473 28
6779 8471 8474 28
6780 8471 8475 28
6781 8476 8477 28
6782 8476 8478 28
6783 8476 8479 28
6784 8476 8480 28
6785 8481 8482 28
6786 8481 8483 28
6787 8481 8484 28
6788 8481 8485 28
6789 8486 8487 28
6790 8486 8488 28
6791 8486 8489 28
6792 8486 8490 28
6793 8491 8492 28
6794 8491 8493 28
6795 8491 8494 28
6796 8491 8495 28
6797 8496 8497 28
6798 8496 8498 28
6799 8496 8499 28
6800 8496 8500 28
6801 8501 8502 28
6802 8501 8503 28
6803 8501 8504 28
6804 8501 8505 28
6805 8506 8507 28
6806 8506 8508 28
6807 8506 8509 28
6808 8506 8510 28
6809 8511 8512 28
6810 8511 8513 28
6811 8511 8514 28
6812 8511 8515 28
6813 8516 8517 28
6814 8516 8518 28
6815 8516 8519 28
6816 8516 8520 28
6817 8521 8522 28
6818 8521 8523 28
6819 8521 8524 28
6820 8521 8525 28
6821 8526 8527 28
6822 8526 8528 28
6823 8526 8529 28
6824 8526 8530 28
6825 8531 8532 28
6826 8531 8533 28
6827 8531 8534 28
6828 8531 8535 28
6829 8536 8537 28
6830 8536 8538 28
6831 8536 8539 28
6832 8536 8540 28
6833 8541 8542 28
6834 8541 8543 28
6835 8541 8544 28
6836 8541 8545 28
6837 8546 8547 28
6838 8546 8548 28
6839 8546 8549 28
6840 8546 8550 28
6841 8551 8552 28
6842 8551 8553 28
6843 8551 8554 28
6844 8551 8555 28
6845 8556 8557 28
6846 8556 8558 28
6847 8556 8559 28
6848 8556 8560 28
6849 8561 8562 28
6850 8561 8563 28
6851 8561 8564 28
6852 8561 8565 28
6853 8566 8567 28
6854 8566 8568 28
6855 8566 8569 28
6856 8566 8570 28
6857 8571 8572 28
6858 8571 8573 28
6859 8571 8574 28
6860 8571 8575 28
6861 8576 8577 28
6862 8576 8578 28
6863 8576 8579 28
6864 8576 8580 28
6865 8581 8582 28
6866 8581 8583 28
6867 8581 8584 28
6868 8581 8585 28
6869 8586 8587 28
6870 8586 8588 28
6871 8586 8589 28
6872 8586 8590 28
6873 8591 8592 28
6874 8591 8593 28
6875 8591 8594 28
6876 8591 8595 28
6877 8596 8597 28
6878 8596 8598 28
6879 8596 8599 28
6880 8596 8600 28
6881 8601 8602 28
6882 8601 8603 28
6883 8601 8604 28
6884 8601 8605 28
6885 8606 8607 28
6886 8606 8608 28
6887 8606 8609 28
6888 8606 8610 28
6889 8611 8612 28
6890 8611 8613 28
6891 8611 8614 28
6892 8611 8615 28
6893 8616 8617 28
6894 8616 8618 28
6895 8616 8619 28
6896 8616 8620 28
6897 8621 8622 28
6898 8621 8623 28
6899 8621 8624 28
6900 8621 8625 28
6901 8626 8627 28
6902 8626 8628 28
6903 8626 8629 28
6904 8626 8630 28
6905 8631 8632 28
6906 8631 8633 28
6907 8631 8634 28
6908 8631 8635 28
6909 8636 8637 28
6910 8636 8638 28
6911 8636 8639 28
6912 8636 8640 28
6913 8641 8642 28
6914 8641 8643 28
6915 8641 8644 28
6916 8641 8645 28
6917 8646 8647 28
6918 8646 8648 28
6919 8646 8649 28
6920 8646 8650 28
6921 8651 8652 28
6922 8651 8653 28
6923 8651 8654 28
6924 8651 8655 28
6925 8656 8657 28
6926 8656 8658 28
6927 8656 8659 28
6928 8656 8660 28
6929 8661 8662 28
6930 8661 8663 28
6931 8661 8664 28
6932 8661 8665 28
6933 8666 8667 28
6934 8666 8668 28
6935 8666 8669 28
6936 8666 8670 28
6937 8671 8672 28
6938 8671 8673 28
6939 8671 8674 28
6940 8671 8675 28
6941 8676 8677 28
6942 8676 8678 28
6943 8676 8679 28
6944 8676 8680 28
6945 8681 8682 28
6946 8681 8683 28
6947 8681 8684 28
6948 8681 8685 28
6949 8686 8687 28
6950 8686 8688 28
6951 8686 8689 28
6952 8686 8690 28
6953 8691 8692 28
6954 8691 8693 28
6955 8691 8694 28
6956 8691 8695 28
6957 8696 8697 28
6958 8696 8698 28
6959 8696 8699 28
6960 8696 8700 28
6961 8701 8702 28
6962 8701 8703 28
6963 8701 8704 28
6964 8701 8705 28
6965 8706 8707 28
6966 8706 8708 28
6967 8706 8709 28
6968 8706 8710 28
6969 8711 8712 28
6970 8711 8713 28
6971 8711 8714 28
6972 8711 8715 28
6973 8716 8717 28
6974 8716 8718 28
6975 8716 8719 28
6976 8716 8720 28
6977 8721 8722 28
6978 8721 8723 28
6979 8721 8724 28
6980 8721 8725 28
6981 8726 8727 28
6982 8726 8728 28
6983 8726 8729 28
6984 8726 8730 28
6985 8731 8732 28
6986 8731 8733 28
6987 8731 8734 28
6988 8731 8735 28
6989 8736 8737 28
6990 8736 8738 28
6991 8736 8739 28
6992 8736 8740 28
6993 8741 8742 28
6994 8741 8743 28
6995 8741 8744 28
6996 8741 8745 28
6997 8746 8747 28
6998 8746 8748 28
6999 8746 8749 28
7000 8746 8750 28
7001 8751 8752 28
7002 8751 8753 28
7003 8751 8754 28
7004 8751 8755 28
7005 8756 8757 28
7006 8756 8758 28
7007 8756 8759 28
7008 8756 8760 28
7009 8761 8762 28
7010 8761 8763 28
7011 8761 8764 28
7012 8761 8765 28
7013 8766 8767 28
7014 8766 8768 28
7015 8766 8769 28
7016 8766 8770 28
7017 8771 8772 28
7018 8771 8773 28
7019 8771 8774 28
7020 8771 8775 28
7021 8776 8777 28
7022 8776 8778 28
7023 8776 8779 28
7024 8776 8780 28
7025 8781 8782 28
7026 8781 8783 28
7027 8781 8784 28
7028 8781 8785 28
7029 8786 8787 28
7030 8786 8788 28
7031 8786 8789 28
7032 8786 8790 28
7033 8791 8792 28
7034 8791 8793 28
7035 8791 8794 28
7036 8791 8795 28
7037 8796 8797 28
7038 8796 8798 28
7039 8796 8799 28
7040 8796 8800 28
7041 8801 8802 28
7042 8801 8803 28
7043 8801 8804 28
7044 8801 8805 28
7045 8806 8807 28
7046 8806 8808 28
7047 8806 8809 28
7048 8806 8810 28
7049 8811 8812 28
7050 8811 8813 28
7051 8811 8814 28
7052 8811 8815 28
7053 8816 8817 28
7054 8816 8818 28
7055 8816 8819 28
7056 8816 8820 28
7057 8821 8822 28
7058 8821 8823 28
7059 8821 8824 28
7060 8821 8825 28
7061 8826 8827 28
7062 8826 8828 28
7063 8826 8829 28
7064 8826 8830 28
7065 8831 8832 28
7066 8831 8833 28
7067 8831 8834 28
7068 8831 8835 28
7069 8836 8837 28
7070 8836 8838 28
7071 8836 8839 28
7072 8836 8840 28
7073 8841 8842 28
7074 8841 8843 28
7075 8841 8844 28
7076 8841 8845 28
7077 8846 8847 28
7078 8846 8848 28
7079 8846 8849 28
7080 8846 8850 28
7081 8851 8852 28
7082 8851 8853 28
7083 8851 8854 28
7084 8851 8855 28
7085 8856 8857 28
7086 8856 8858 28
7087 8856 8859 28
7088 8856 8860 28
7089 8861 8862 28
7090 8861 8863 28
7091 8861 8864 28
7092 8861 8865 28
7093 8866 8867 28
7094 8866 8868 28
7095 8866 8869 28
7096 8866 8870 28
7097 8871 8872 28
7098 8871 8873 28
7099 8871 8874 28
7100 8871 8875 28
7101 8876 8877 28
7102 8876 8878 28
7103 8876 8879 28
7104 8876 8880 28
7105 8881 8882 28
7106 8881 8883 28
7107 8881 8884 28
7108 8881 8885 28
7109 8886 8887 28
7110 8886 8888 28
7111 8886 8889 28
7112 8886 8890 28
7113 8891 8892 28
7114 8891 8893 28
7115 8891 8894 28
7116 8891 8895 28
7117 8896 8897 28
7118 8896 8898 28
7119 8896 8899 28
7120 8896 8900 28
7121 8901 8902 28
7122 8901 8903 28
7123 8901 8904 28
7124 8901 8905 28
7125 8906 8907 28
7126 8906 8908 28
7127 8906 8909 28
7128 8906 8910 28
7129 8911 8912 28
7130 8911 8913 28
7131 8911 8914 28
7132 8911 8915 28
7133 8916 8917 28
7134 8916 8918 28
7135 8916 8919 28
7136 8916 8920 28
7137 8921 8922 28
7138 8921 8923 28
7139 8921 8924 28
7140 8921 8925 28
7141 8926 8927 28
7142 8926 8928 28
7143 8926 8929 28
7144 8926 8930 28
7145 8931 8932 28
7146 8931 8933 28
7147 8931 8934 28
7148 8931 8935 28
7149 8936 8937 28
7150 8936 8938 28
7151 8936 8939 28
7152 8936 8940 28
7153 8941 8942 28
7154 8941 8943 28
7155 8941 8944 28
7156 8941 8945 28
7157 8946 8947 28
7158 8946 8948 28
7159 8946 8949 28
7160 8946 8950 28
7161 8951 8952 28
7162 8951 8953 28
7163 8951 8954 28
7164 8951 8955 28
7165 8956 8957 28
7166 8956 8958 28
7167 8956 8959 28
7168 8956 8960 28
7169 8961 8962 28
7170 8961 8963 28
7171 8961 8964 28
7172 8961 8965 28
7173 8966 8967 28
7174 8966 8968 28
7175 8966 8969 28
7176 8966 8970 28
7177 8971 8972 28
7178 8971 8973 28
7179 8971 8974 28
7180 8971 8975 28
7181 8976 8977 28
7182 8976 8978 28
7183 8976 8979 28
7184 8976 8980 28
7185 8981 8982 28
7186 8981 8983 28
7187 8981 8984 28
7188 8981 8985 28
7189 8986 8987 28
7190 8986 8988 28
7191 8986 8989 28
7192 8986 8990 28
7193 8991 8992 28
7194 8991 8993 28
7195 8991 8994 28
7196 8991 8995 28
7197 8996 8997 28
7198 8996 8998 28
7199 8996 8999 28
7200 8996 9000 28
7201 9001 9002 28
7202 9001 9003 28
7203 9001 9004 28
7204 9001 9005 28
7205 9006 9007 28
7206 9006 9008 28
7207 9006 9009 28
7208 9006 9010 28
7209 9011 9012 28
7210 9011 9013 28
7211 9011 9014 28
7212 9011 9015 28
7213 9016 9017 28
7214 9016 9018 28
7215 9016 9019 28
7216 9016 9020 28
7217 9021 9022 28
7218 9021 9023 28
7219 9021 9024 28
7220 9021 9025 28
7221 9026 9027 28
7222 9026 9028 28
7223 9026 9029 28
7224 9026 9030 28
7225 9031 9032 28
7226 9031 9033 28
7227 9031 9034 28
7228 9031 9035 28
7229 9036 9037 28
7230 9036 9038 28
7231 9036 9039 28
7232 9036 9040 28
7233 9041 9042 28
7234 9041 9043 28
7235 9041 9044 28
7236 9041 9045 28
7237 9046 9047 28
7238 9046 9048 28
7239 9046 9049 28
7240 9046 9050 28
7241 9051 9052 28
7242 9051 9053 28
7243 9051 9054 28
7244 9051 9055 28
7245 9056 9057 28
7246 9056 9058 28
7247 9056 9059 28
7248 9056 9060 28
7249 9061 9062 28
7250 9061 9063 28
7251 9061 9064 28
7252 9061 9065 28
7253 9066 9067 28
7254 9066 9068 28
7255 9066 9069 28
7256 9066 9070 28
7257 9071 9072 28
7258 9071 9073 28
7259 9071 9074 28
7260 9071 9075 28
7261 9076 9077 28
7262 9076 9078 28
7263 9076 9079 28
7264 9076 9080 28
7265 9081 9082 28
7266 9081 9083 28
7267 9081 9084 28
7268 9081 9085 28
7269 9086 9087 28
7270 9086 9088 28
7271 9086 9089 28
7272 9086 9090 28
7273 9091 9092 28
7274 9091 9093 28
7275 9091 9094 28
7276 9091 9095 28
7277 9096 9097 28
7278 9096 9098 28
7279 9096 9099 28
7280 9096 9100 28
7281 9101 9102 28
7282 9101 9103 28
7283 9101 9104 28
7284 9101 9105 28
7285 9106 9107 28
7286 9106 9108 28
7287 9106 9109 28
7288 9106 9110 28
7289 9111 9112 28
7290 9111 9113 28
7291 9111 9114 28
7292 9111 9115 28
7293 9116 9117 28
7294 9116 9118 28
7295 9116 9119 28
7296 9116 9120 28
7297 9121 9122 28
7298 9121 9123 28
7299 9121 9124 28
7300 9121 9125 28
7301 9126 9127 28
7302 9126 9128 28
7303 9126 9129 28
7304 9126 9130 28
7305 9131 9132 28
7306 9131 9133 28
7307 9131 9134 28
7308 9131 9135 28
7309 9136 9137 28
7310 9136 9138 28
7311 9136 9139 28
7312 9136 9140 28
7313 9141 9142 28
7314 9141 9143 28
7315 9141 9144 28
7316 9141 9145 28
7317 9146 9147 28
7318 9146 9148 28
7319 9146 9149 28
7320 9146 9150 28
7321 9151 9152 28
7322 9151 9153 28
7323 9151 9154 28
7324 9151 9155 28
7325 9156 9157 28
7326 9156 9158 28
7327 9156 9159 28
7328 9156 9160 28
7329 9161 9162 28
7330 9161 9163 28
7331 9161 9164 28
7332 9161 9165 28
7333 9166 9167 28
7334 9166 9168 28
7335 9166 9169 28
7336 9166 9170 28
7337 9171 9172 28
7338 9171 9173 28
7339 9171 9174 28
7340 9171 9175 28
7341 9176 9177 28
7342 9176 9178 28
7343 9176 9179 28
7344 9176 9180 28
7345 9181 9182 28
7346 9181 9183 28
7347 9181 9184 28
7348 9181 9185 28
7349 9186 9187 28
7350 9186 9188 28
7351 9186 9189 28
7352 9186 9190 28
7353 9191 9192 28
7354 9191 9193 28
7355 9191 9194 28
7356 9191 9195 28
7357 9196 9197 28
7358 9196 9198 28
7359 9196 9199 28
7360 9196 9200 28
7361 9201 9202 28
7362 9201 9203 28
7363 9201 9204 28
7364 9201 9205 28
7365 9206 9207 28
7366 9206 9208 28
7367 9206 9209 28
7368 9206 9210 28
7369 9211 9212 28
7370 9211 9213 28
7371 9211 9214 28
7372 9211 9215 28
7373 9216 9217 28
7374 9216 9218 28
7375 9216 9219 28
7376 9216 9220 28
7377 9221 9222 28
7378 9221 9223 28
7379 9221 9224 28
7380 9221 9225 28
7381 9226 9227 28
7382 9226 9228 28
7383 9226 9229 28
7384 9226 9230 28
7385 9231 9232 28
7386 9231 9233 28
7387 9231 9234 28
7388 9231 9235 28
7389 9236 9237 28
7390 9236 9238 28
7391 9236 9239 28
7392 9236 9240 28
7393 9241 9242 28
7394 9241 9243 28
7395 9241 9244 28
7396 9241 9245 28
7397 9246 9247 28
7398 9246 9248 28
7399 9246 9249 28
7400 9246 9250 28
7401 9251 9252 28
7402 9251 9253 28
7403 9251 9254 28
7404 9251 9255 28
7405 9256 9257 28
7406 9256 9258 28
7407 9256 9259 28
7408 9256 9260 28
7409 9261 9262 28
7410 9261 9263 28
7411 9261 9264 28
7412 9261 9265 28
7413 9266 9267 28
7414 9266 9268 28
7415 9266 9269 28
7416 9266 9270 28
7417 9271 9272 28
7418 9271 9273 28
7419 9271 9274 28
7420 9271 9275 28
7421 9276 9277 28
7422 9276 9278 28
7423 9276 9279 28
7424 9276 9280 28
7425 9281 9282 28
7426 9281 9283 28
7427 9281 9284 28
7428 9281 9285 28
7429 9286 9287 28
7430 9286 9288 28
7431 9286 9289 28
7432 9286 9290 28
7433 9291 9292 28
7434 9291 9293 28
7435 9291 9294 28
7436 9291 9295 28
7437 9296 9297 28
7438 9296 9298 28
7439 9296 9299 28
7440 9296 9300 28
7441 9301 9302 28
7442 9301 9303 28
7443 9301 9304 28
7444 9301 9305 28
7445 9306 9307 28
7446 9306 9308 28
7447 9306 9309 28
7448 9306 9310 28
7449 9311 9312 28
7450 9311 9313 28
7451 9311 9314 28
7452 9311 9315 28
7453 9316 9317 28
7454 9316 9318 28
7455 9316 9319 28
7456 9316 9320 28
7457 9321 9322 28
7458 9321 9323 28
7459 9321 9324 28
7460 9321 9325 28
7461 9326 9327 28
7462 9326 9328 28
7463 9326 9329 28
7464 9326 9330 28
7465 9331 9332 28
7466 9331 9333 28
7467 9331 9334 28
7468 9331 9335 28
7469 9336 9337 28
7470 9336 9338 28
7471 9336 9339 28
7472 9336 9340 28
7473 9341 9342 28
7474 9341 9343 28
7475 9341 9344 28
7476 9341 9345 28
7477 9346 9347 28
7478 9346 9348 28
7479 9346 9349 28
7480 9346 9350 28
7481 9351 9352 28
7482 9351 9353 28
7483 9351 9354 28
7484 9351 9355 28
7485 9356 9357 28
7486 9356 9358 28
7487 9356 9359 28
7488 9356 9360 28
7489 9361 9362 28
7490 9361 9363 28
7491 9361 9364 28
7492 9361 9365 28
7493 9366 9367 28
7494 9366 9368 28
7495 9366 9369 28
7496 9366 9370 28
7497 9371 9372 28
7498 9371 9373 28
7499 9371 9374 28
7500 9371 9375 28
7501 9376 9377 28
7502 9376 9378 28
7503 9376 9379 28
7504 9376 9380 28
7505 9381 9382 28
7506 9381 9383 28
7507 9381 9384 28
7508 9381 9385 28
7509 9386 9387 28
7510 9386 9388 28
7511 9386 9389 28
7512 9386 9390 28
7513 9391 9392 28
7514 9391 9393 28
7515 9391 9394 28
7516 9391 9395 28
7517 9396 9397 28
7518 9396 9398 28
7519 9396 9399 28
7520 9396 9400 28
7521 9401 9402 28
7522 9401 9403 28
7523 9401 9404 28
7524 9401 9405 28
7525 9406 9407 28
7526 9406 9408 28
7527 9406 9409 28
7528 9406 9410 28
7529 9411 9412 28
7530 9411 9413 28
7531 9411 9414 28
7532 9411 9415 28
7533 9416 9417 28
7534 9416 9418 28
7535 9416 9419 28
7536 9416 9420 28
7537 9421 9422 28
7538 9421 9423 28
7539 9421 9424 28
7540 9421 9425 28
7541 9426 9427 28
7542 9426 9428 28
7543 9426 9429 28
7544 9426 9430 28
7545 9431 9432 28
7546 9431 9433 28
7547 9431 9434 28
7548 9431 9435 28
7549 9436 9437 28
7550 9436 9438 28
7551 9436 9439 28
7552 9436 9440 28
7553 9441 9442 28
7554 9441 9443 28
7555 9441 9444 28
7556 9441 9445 28
7557 9446 9447 28
7558 9446 9448 28
7559 9446 9449 28
7560 9446 9450 28
7561 9451 9452 28
7562 9451 9453 28
7563 9451 9454 28
7564 9451 9455 28
7565 9456 9457 28
7566 9456 9458 28
7567 9456 9459 28
7568 9456 9460 28
7569 9461 9462 28
7570 9461 9463 28
7571 9461 9464 28
7572 9461 9465 28
7573 9466 9467 28
7574 9466 9468 28
7575 9466 9469 28
7576 9466 9470 28
7577 9471 9472 28
7578 9471 9473 28
7579 9471 9474 28
7580 9471 9475 28
7581 9476 9477 28
7582 9476 9478 28
7583 9476 9479 28
7584 9476 9480 28
7585 9481 9482 28
7586 9481 9483 28
7587 9481 9484 28
7588 9481 9485 28
7589 9486 9487 28
7590 9486 9488 28
7591 9486 9489 28
7592 9486 9490 28
7593 9491 9492 28
7594 9491 9493 28
7595 9491 9494 28
7596 9491 9495 28
7597 9496 9497 28
7598 9496 9498 28
7599 9496 9499 28
7600 9496 9500 28
7601 9501 9502 28
7602 9501 9503 28
7603 9501 9504 28
7604 9501 9505 28
7605 9506 9507 28
7606 9506 9508 28
7607 9506 9509 28
7608 9506 9510 28
7609 9511 9512 28
7610 9511 9513 28
7611 9511 9514 28
7612 9511 9515 28
7613 9516 9517 28
7614 9516 9518 28
7615 9516 9519 28
7616 9516 9520 28
7617 9521 9522 28
7618 9521 9523 28
7619 9521 9524 28
7620 9521 9525 28
7621 9526 9527 28
7622 9526 9528 28
7623 9526 9529 28
7624 9526 9530 28
7625 9531 9532 28
7626 9531 9533 28
7627 9531 9534 28
7628 9531 9535 28
7629 9536 9537 28
7630 9536 9538 28
7631 9536 9539 28
7632 9536 9540 28
7633 9541 9542 28
7634 9541 9543 28
7635 9541 9544 28
7636 9541 9545 28
7637 9546 9547 28
7638 9546 9548 28
7639 9546 9549 28
7640 9546 9550 28
7641 9551 9552 28
7642 9551 9553 28
7643 9551 9554 28
7644 9551 9555 28
7645 9556 9557 28
7646 9556 9558 28
7647 9556 9559 28
7648 9556 9560 28
7649 9561 9562 28
7650 9561 9563 28
7651 9561 9564 28
7652 9561 9565 28
7653 9566 9567 28
7654 9566 9568 28
7655 9566 9569 28
7656 9566 9570 28
7657 9571 9572 28
7658 9571 9573 28
7659 9571 9574 28
7660 9571 9575 28
7661 9576 9577 28
7662 9576 9578 28
7663 9576 9579 28
7664 9576 9580 28
7665 9581 9582 28
7666 9581 9583 28
7667 9581 9584 28
7668 9581 9585 28
7669 9586 9587 28
7670 9586 9588 28
7671 9586 9589 28
7672 9586 9590 28
7673 9591 9592 28
7674 9591 9593 28
7675 9591 9594 28
7676 9591 9595 28
7677 9596 9597 28
7678 9596 9598 28
7679 9596 9599 28
7680 9596 9600 28
7681 9601 9602 28
7682 9601 9603 28
7683 9601 9604 28
7684 9601 9605 28
7685 9606 9607 28
7686 9606 9608 28
7687 9606 9609 28
7688 9606 9610 28
7689 9611 9612 28
7690 9611 9613 28
7691 9611 9614 28
7692 9611 9615 28
7693 9616 9617 28
7694 9616 9618 28
7695 9616 9619 28
7696 9616 9620 28
7697 9621 9622 28
7698 9621 9623 28
7699 9621 9624 28
7700 9621 9625 28
7701 9626 9627 28
7702 9626 9628 28
7703 9626 9629 28
7704 9626 9630 28
7705 9631 9632 28
7706 9631 9633 28
7707 9631 9634 28
7708 9631 9635 28
7709 9636 9637 28
7710 9636 9638 28
7711 9636 9639 28
7712 9636 9640 28
7713 9641 9642 28
7714 9641 9643 28
7715 9641 9644 28
7716 9641 9645 28
7717 9646 9647 28
7718 9646 9648 28
7719 9646 9649 28
7720 9646 9650 28
7721 9651 9652 28
7722 9651 9653 28
7723 9651 9654 28
7724 9651 9655 28
7725 9656 9657 28
7726 9656 9658 28
7727 9656 9659 28
7728 9656 9660 28
7729 9661 9662 28
7730 9661 9663 28
7731 9661 9664 28
7732 9661 9665 28
7733 9666 9667 28
7734 9666 9668 28
7735 9666 9669 28
7736 9666 9670 28
7737 9671 9672 28
7738 9671 9673 28
7739 9671 9674 28
7740 9671 9675 28
7741 9676 9677 28
7742 9676 9678 28
7743 9676 9679 28
7744 9676 9680 28
7745 9681 9682 28
7746 9681 9683 28
7747 9681 9684 28
7748 9681 9685 28
7749 9686 9687 28
7750 9686 9688 28
7751 9686 9689 28
7752 9686 9690 28
7753 9691 9692 28
7754 9691 9693 28
7755 9691 9694 28
7756 9691 9695 28
7757 9696 9697 28
7758 9696 9698 28
7759 9696 9699 28
7760 9696 9700 28
7761 9701 9702 28
7762 9701 9703 28
7763 9701 9704 28
7764 9701 9705 28
7765 9706 9707 28
7766 9706 9708 28
7767 9706 9709 28
7768 9706 9710 28
7769 9711 9712 28
7770 9711 9713 28
7771 9711 9714 28
7772 9711 9715 28
7773 9716 9717 28
7774 9716 9718 28
7775 9716 9719 28
7776 9716 9720 28
7777 9721 9722 28
7778 9721 9723 28
7779 9721 9724 28
7780 9721 9725 28
7781 9726 9727 28
7782 9726 9728 28
7783 9726 9729 28
7784 9726 9730 28
7785 9731 9732 28
7786 9731 9733 28
7787 9731 9734 28
7788 9731 9735 28
7789 9736 9737 28
7790 9736 9738 28
7791 9736 9739 28
7792 9736 9740 28
7793 9741 9742 28
7794 9741 9743 28
7795 9741 9744 28
7796 9741 9745 28
7797 9746 9747 28
7798 9746 9748 28
7799 9746 9749 28
7800 9746 9750 28
7801 9751 9752 28
7802 9751 9753 28
7803 9751 9754 28
7804 9751 9755 28
7805 9756 9757 28
7806 9756 9758 28
7807 9756 9759 28
7808 9756 9760 28
7809 9761 9762 28
7810 9761 9763 28
7811 9761 9764 28
7812 9761 9765 28
7813 9766 9767 28
7814 9766 9768 28
7815 9766 9769 28
7816 9766 9770 28
7817 9771 9772 28
7818 9771 9773 28
7819 9771 9774 28
7820 9771 9775 28
7821 9776 9777 28
7822 9776 9778 28
7823 9776 9779 28
7824 9776 9780 28
7825 9781 9782 28
7826 9781 9783 28
7827 9781 9784 28
7828 9781 9785 28
7829 9786 9787 28
7830 9786 9788 28
7831 9786 9789 28
7832 9786 9790 28
7833 9791 9792 28
7834 9791 9793 28
7835 9791 9794 28
7836 9791 9795 28
7837 9796 9797 28
7838 9796 9798 28
7839 9796 9799 28
7840 9796 9800 28
7841 9801 9802 28
7842 9801 9803 28
7843 9801 9804 28
7844 9801 9805 28
7845 9806 9807 28
7846 9806 9808 28
7847 9806 9809 28
7848 9806 9810 28
7849 9811 9812 28
7850 9811 9813 28
7851 9811 9814 28
7852 9811 9815 28
7853 9816 9817 28
7854 9816 9818 28
7855 9816 9819 28
7856 9816 9820 28
7857 9821 9822 28
7858 9821 9823 28
7859 9821 9824 28
7860 9821 9825 28
7861 9826 9827 28
7862 9826 9828 28
7863 9826 9829 28
7864 9826 9830 28
7865 9831 9832 28
7866 9831 9833 28
7867 9831 9834 28
7868 9831 9835 28
7869 9836 9837 28
7870 9836 9838 28
7871 9836 9839 28
7872 9836 9840 28
7873 9841 9842 28
7874 9841 9843 28
7875 9841 9844 28
7876 9841 9845 28
7877 9846 9847 28
7878 9846 9848 28
7879 9846 9849 28
7880 9846 9850 28
7881 9851 9852 28
7882 9851 9853 28
7883 9851 9854 28
7884 9851 9855 28
7885 9856 9857 28
7886 9856 9858 28
7887 9856 9859 28
7888 9856 9860 28
7889 9861 9862 28
7890 9861 9863 28
7891 9861 9864 28
7892 9861 9865 28
7893 9866 9867 28
7894 9866 9868 28
7895 9866 9869 28
7896 9866 9870 28
7897 9871 9872 28
7898 9871 9873 28
7899 9871 9874 28
7900 9871 9875 28
7901 9876 9877 28
7902 9876 9878 28
7903 9876 9879 28
7904 9876 9880 28
7905 9881 9882 28
7906 9881 9883 28
7907 9881 9884 28
7908 9881 9885 28
7909 9886 9887 28
7910 9886 9888 28
7911 9886 9889 28
7912 9886 9890 28
7913 9891 9892 28
7914 9891 9893 28
7915 9891 9894 28
7916 9891 9895 28
7917 9896 9897 28
7918 9896 9898 28
7919 9896 9899 28
7920 9896 9900 28
7921 9901 9902 28
7922 9901 9903 28
7923 9901 9904 28
7924 9901 9905 28
7925 9906 9907 28
7926 9906 9908 28
7927 9906 9909 28
7928 9906 9910 28
7929 9911 9912 28
7930 9911 9913 28
7931 9911 9914 28
7932 9911 9915 28
7933 9916 9917 28
7934 9916 9918 28
7935 9916 9919 28
7936 9916 9920 28
7937 9921 9922 28
7938 9921 9923 28
7939 9921 9924 28
7940 9921 9925 28
7941 9926 9927 28
7942 9926 9928 28
7943 9926 9929 28
7944 9926 9930 28
7945 9931 9932 28
7946 9931 9933 28
7947 9931 9934 28
7948 9931 9935 28
7949 9936 9937 28
7950 9936 9938 28
7951 9936 9939 28
7952 9936 9940 28
7953 9941 9942 28
7954 9941 9943 28
7955 9941 9944 28
7956 9941 9945 28
7957 9946 9947 28
7958 9946 9948 28
7959 9946 9949 28
7960 9946 9950 28
7961 9951 9952 28
7962 9951 9953 28
7963 9951 9954 28
7964 9951 9955 28
7965 9956 9957 28
7966 9956 9958 28
7967 9956 9959 28
7968 9956 9960 28
7969 9961 9962 28
7970 9961 9963 28
7971 9961 9964 28
7972 9961 9965 28
7973 9966 9967 28
7974 9966 9968 28
7975 9966 9969 28
7976 9966 9970 28
7977 9971 9972 28
7978 9971 9973 28
7979 9971 9974 28
7980 9971 9975 28
7981 9976 9977 28
7982 9976 9978 28
7983 9976 9979 28
7984 9976 9980 28
7985 9981 9982 28
7986 9981 9983 28
7987 9981 9984 28
7988 9981 9985 28
7989 9986 9987 28
7990 9986 9988 28
7991 9986 9989 28
7992 9986 9990 28
7993 9991 9992 28
7994 9991 9993 28
7995 9991 9994 28
7996 9991 9995 28
7997 9996 9997 28
7998 9996 9998 28
7999 9996 9999 28
8000 9996 10000 28
8001 10001 10002 28
8002 10001 10003 28
8003 10001 10004 28
8004 10001 10005 28
8005 10006 10007 28
8006 10006 10008 28
8007 10006 10009 28
8008 10006 10010 28
8009 10011 10012 28
8010 10011 10013 28
8011 10011 10014 28
8012 10011 10015 28
8013 10016 10017 28
8014 10016 10018 28
8015 10016 10019 28
8016 10016 10020 28
8017 10021 10022 28
8018 10021 10023 28
8019 10021 10024 28
8020 10021 10025 28
8021 10026 10027 28
8022 10026 10028 28
8023 10026 10029 28
8024 10026 10030 28
8025 10031 10032 28
8026 10031 10033 28
8027 10031 10034 28
8028 10031 10035 28
8029 10036 10037 28
8030 10036 10038 28
8031 10036 10039 28
8032 10036 10040 28
8033 10041 10042 28
8034 10041 10043 28
8035 10041 10044 28
8036 10041 10045 28
8037 10046 10047 28
8038 10046 10048 28
8039 10046 10049 28
8040 10046 10050 28
8041 10051 10052 28
8042 10051 10053 28
8043 10051 10054 28
8044 10051 10055 28
8045 10056 10057 28
8046 10056 10058 28
8047 10056 10059 28
8048 10056 10060 28
8049 10061 10062 28
8050 10061 10063 28
8051 10061 10064 28
8052 10061 10065 28
8053 10066 10067 28
8054 10066 10068 28
8055 10066 10069 28
8056 10066 10070 28
8057 10071 10072 28
8058 10071 10073 28
8059 10071 10074 28
8060 10071 10075 28
8061 10076 10077 28
8062 10076 10078 28
8063 10076 10079 28
8064 10076 10080 28
8065 10081 10082 28
8066 10081 10083 28
8067 10081 10084 28
8068 10081 10085 28
8069 10086 10087 28
8070 10086 10088 28
8071 10086 10089 28
8072 10086 10090 28
8073 10091 10092 28
8074 10091 10093 28
8075 10091 10094 28
8076 10091 10095 28
8077 10096 10097 28
8078 10096 10098 28
8079 10096 10099 28
8080 10096 10100 28
8081 10101 10102 28
8082 10101 10103 28
8083 10101 10104 28
8084 10101 10105 28
8085 10106 10107 28
8086 10106 10108 28
8087 10106 10109 28
8088 10106 10110 28
8089 10111 10112 28
8090 10111 10113 28
8091 10111 10114 28
8092 10111 10115 28
8093 10116 10117 28
8094 10116 10118 28
8095 10116 10119 28
8096 10116 10120 28
8097 10121 10122 28
8098 10121 10123 28
8099 10121 10124 28
8100 10121 10125 28
8101 10126 10127 28
8102 10126 10128 28
8103 10126 10129 28
8104 10126 10130 28
8105 10131 10132 28
8106 10131 10133 28
8107 10131 10134 28
8108 10131 10135 28
8109 10136 10137 28
8110 10136 10138 28
8111 10136 10139 28
8112 10136 10140 28
8113 10141 10142 28
8114 10141 10143 28
8115 10141 10144 28
8116 10141 10145 28
8117 10146 10147 28
8118 10146 10148 28
8119 10146 10149 28
8120 10146 10150 28
8121 10151 10152 28
8122 10151 10153 28
8123 10151 10154 28
8124 10151 10155 28
8125 10156 10157 28
8126 10156 10158 28
8127 10156 10159 28
8128 10156 10160 28
8129 10161 10162 28
8130 10161 10163 28
8131 10161 10164 28
8132 10161 10165 28
8133 10166 10167 28
8134 10166 10168 28
8135 10166 10169 28
8136 10166 10170 28
8137 10171 10172 28
8138 10171 10173 28
8139 10171 10174 28
8140 10171 10175 28
8141 10176 10177 28
8142 10176 10178 28
8143 10176 10179 28
8144 10176 10180 28
8145 10181 10182 28
8146 10181 10183 28
8147 10181 10184 28
8148 10181 10185 28
8149 10186 10187 28
8150 10186 10188 28
8151 10186 10189 28
8152 10186 10190 28
8153 10191 10192 28
8154 10191 10193 28
8155 10191 10194 28
8156 10191 10195 28
8157 10196 10197 28
8158 10196 10198 28
8159 10196 10199 28
8160 10196 10200 28
8161 10201 10202 28
8162 10201 10203 28
8163 10201 10204 28
8164 10201 10205 28
8165 10206 10207 28
8166 10206 10208 28
8167 10206 10209 28
8168 10206 10210 28
8169 10211 10212 28
8170 10211 10213 28
8171 10211 10214 28
8172 10211 10215 28
8173 10216 10217 28
8174 10216 10218 28
8175 10216 10219 28
8176 10216 10220 28
8177 10221 10222 28
8178 10221 10223 28
8179 10221 10224 28
8180 10221 10225 28
8181 10226 10227 28
8182 10226 10228 28
8183 10226 10229 28
8184 10226 10230 28
8185 10231 10232 28
8186 10231 10233 28
8187 10231 10234 28
8188 10231 10235 28
8189 10236 10237 28
8190 10236 10238 28
8191 10236 10239 28
8192 10236 10240 28
8193 10241 10242 28
8194 10241 10243 28
8195 10241 10244 28
8196 10241 10245 28
8197 10246 10247 28
8198 10246 10248 28
8199 10246 10249 28
8200 10246 10250 28
8201 10251 10252 28
8202 10251 10253 28
8203 10251 10254 28
8204 10251 10255 28
8205 10256 10257 28
8206 10256 10258 28
8207 10256 10259 28
8208 10256 10260 28
8209 10261 10262 28
8210 10261 10263 28
8211 10261 10264 28
8212 10261 10265 28
8213 10266 10267 28
8214 10266 10268 28
8215 10266 10269 28
8216 10266 10270 28
8217 10271 10272 28
8218 10271 10273 28
8219 10271 10274 28
8220 10271 10275 28
8221 10276 10277 28
8222 10276 10278 28
8223 10276 10279 28
8224 10276 10280 28
8225 10281 10282 28
8226 10281 10283 28
8227 10281 10284 28
8228 10281 10285 28
8229 10286 10287 28
8230 10286 10288 28
8231 10286 10289 28
8232 10286 10290 28
8233 10291 10292 28
8234 10291 10293 28
8235 10291 10294 28
8236 10291 10295 28
8237 10296 10297 28
8238 10296 10298 28
8239 10296 10299 28
8240 10296 10300 28
8241 10301 10302 28
8242 10301 10303 28
8243 10301 10304 28
8244 10301 10305 28
8245 10306 10307 28
8246 10306 10308 28
8247 10306 10309 28
8248 10306 10310 28
8249 10311 10312 28
8250 10311 10313 28
8251 10311 10314 28
8252 10311 10315 28
8253 10316 10317 28
8254 10316 10318 28
8255 10316 10319 28
8256 10316 10320 28
8257 10321 10322 28
8258 10321 10323 28
8259 10321 10324 28
8260 10321 10325 28
8261 10326 10327 28
8262 10326 10328 28
8263 10326 10329 28
8264 10326 10330 28
8265 10331 10332 28
8266 10331 10333 28
8267 10331 10334 28
8268 10331 10335 28
8269 10336 10337 28
8270 10336 10338 28
8271 10336 10339 28
8272 10336 10340 28
8273 10341 10342 28
8274 10341 10343 28
8275 10341 10344 28
8276 10341 10345 28
8277 10346 10347 28
8278 10346 10348 28
8279 10346 10349 28
8280 10346 10350 28
8281 10351 10352 28
8282 10351 10353 28
8283 10351 10354 28
8284 10351 10355 28
8285 10356 10357 28
8286 10356 10358 28
8287 10356 10359 28
8288 10356 10360 28
8289 10361 10362 28
8290 10361 10363 28
8291 10361 10364 28
8292 10361 10365 28
8293 10366 10367 28
8294 10366 10368 28
8295 10366 10369 28
8296 10366 10370 28
8297 10371 10372 28
8298 10371 10373 28
8299 10371 10374 28
8300 10371 10375 28
8301 10376 10377 28
8302 10376 10378 28
8303 10376 10379 28
8304 10376 10380 28
8305 10381 10382 28
8306 10381 10383 28
8307 10381 10384 28
8308 10381 10385 28
8309 10386 10387 28
8310 10386 10388 28
8311 10386 10389 28
8312 10386 10390 28
8313 10391 10392 28
8314 10391 10393 28
8315 10391 10394 28
8316 10391 10395 28
8317 10396 10397 28
8318 10396 10398 28
8319 10396 10399 28
8320 10396 10400 28
8321 10401 10402 28
8322 10401 10403 28
8323 10401 10404 28
8324 10401 10405 28
8325 10406 10407 28
8326 10406 10408 28
8327 10406 10409 28
8328 10406 10410 28
8329 10411 10412 28
8330 10411 10413 28
8331 10411 10414 28
8332 10411 10415 28
8333 10416 10417 28
8334 10416 10418 28
8335 10416 10419 28
8336 10416 10420 28
8337 10421 10422 28
8338 10421 10423 28
8339 10421 10424 28
8340 10421 10425 28
8341 10426 10427 28
8342 10426 10428 28
8343 10426 10429 28
8344 10426 10430 28
8345 10431 10432 28
8346 10431 10433 28
8347 10431 10434 28
8348 10431 10435 28
8349 10436 10437 28
8350 10436 10438 28
8351 10436 10439 28
8352 10436 10440 28
8353 10441 10442 28
8354 10441 10443 28
8355 10441 10444 28
8356 10441 10445 28
8357 10446 10447 28
8358 10446 10448 28
8359 10446 10449 28
8360 10446 10450 28
8361 10451 10452 28
8362 10451 10453 28
8363 10451 10454 28
8364 10451 10455 28
8365 10456 10457 28
8366 10456 10458 28
8367 10456 10459 28
8368 10456 10460 28
8369 10461 10462 28
8370 10461 10463 28
8371 10461 10464 28
8372 10461 10465 28
8373 10466 10467 28
8374 10466 10468 28
8375 10466 10469 28
8376 10466 10470 28
8377 10471 10472 28
8378 10471 10473 28
8379 10471 10474 28
8380 10471 10475 28
8381 10476 10477 28
8382 10476 10478 28
8383 10476 10479 28
8384 10476 10480 28
8385 10481 10482 28
8386 10481 10483 28
8387 10481 10484 28
8388 10481 10485 28
8389 10486 10487 28
8390 10486 10488 28
8391 10486 10489 28
8392 10486 10490 28
8393 10491 10492 28
8394 10491 10493 28
8395 10491 10494 28
8396 10491 10495 28
8397 10496 10497 28
8398 10496 10498 28
8399 10496 10499 28
8400 10496 10500 28
8401 10501 10502 28
8402 10501 10503 28
8403 10501 10504 28
8404 10501 10505 28
8405 10506 10507 28
8406 10506 10508 28
8407 10506 10509 28
8408 10506 10510 28
8409 10511 10512 28
8410 10511 10513 28
8411 10511 10514 28
8412 10511 10515 28
8413 10516 10517 28
8414 10516 10518 28
8415 10516 10519 28
8416 10516 10520 28
8417 10521 10522 28
8418 10521 10523 28
8419 10521 10524 28
8420 10521 10525 28
8421 10526 10527 28
8422 10526 10528 28
8423 10526 10529 28
8424 10526 10530 28
8425 10531 10532 28
8426 10531 10533 28
8427 10531 10534 28
8428 10531 10535 28
8429 10536 10537 28
8430 10536 10538 28
8431 10536 10539 28
8432 10536 10540 28
8433 10541 10542 28
8434 10541 10543 28
8435 10541 10544 28
8436 10541 10545 28
8437 10546 10547 28
8438 10546 10548 28
8439 10546 10549 28
8440 10546 10550 28
8441 10551 10552 28
8442 10551 10553 28
8443 10551 10554 28
8444 10551 10555 28
8445 10556 10557 28
8446 10556 10558 28
8447 10556 10559 28
8448 10556 10560 28
8449 10561 10562 28
8450 10561 10563 28
8451 10561 10564 28
8452 10561 10565 28
8453 10566 10567 28
8454 10566 10568 28
8455 10566 10569 28
8456 10566 10570 28
8457 10571 10572 28
8458 10571 10573 28
8459 10571 10574 28
8460 10571 10575 28
8461 10576 10577 28
8462 10576 10578 28
8463 10576 10579 28
8464 10576 10580 28
8465 10581 10582 28
8466 10581 10583 28
8467 10581 10584 28
8468 10581 10585 28
8469 10586 10587 28
8470 10586 10588 28
8471 10586 10589 28
8472 10586 10590 28
8473 10591 10592 28
8474 10591 10593 28
8475 10591 10594 28
8476 10591 10595 28
8477 10596 10597 28
8478 10596 10598 28
8479 10596 10599 28
8480 10596 10600 28
8481 10601 10602 28
8482 10601 10603 28
8483 10601 10604 28
8484 10601 10605 28
8485 10606 10607 28
8486 10606 10608 28
8487 10606 10609 28
8488 10606 10610 28
8489 10611 10612 28
8490 10611 10613 28
8491 10611 10614 28
8492 10611 10615 28
8493 10616 10617 28
8494 10616 10618 28
8495 10616 10619 28
8496 10616 10620 28
8497 10621 10622 28
8498 10621 10623 28
8499 10621 10624 28
8500 10621 10625 28
8501 10626 10627 28
8502 10626 10628 28
8503 10626 10629 28
8504 10626 10630 28
8505 10631 10632 28
8506 10631 10633 28
8507 10631 10634 28
8508 10631 10635 28
8509 10636 10637 28
8510 10636 10638 28
8511 10636 10639 28
8512 10636 10640 28
8513 10641 10642 28
8514 10641 10643 28
8515 10641 10644 28
8516 10641 10645 28
8517 10646 10647 28
8518 10646 10648 28
8519 10646 10649 28
8520 10646 10650 28
8521 10651 10652 28
8522 10651 10653 28
8523 10651 10654 28
8524 10651 10655 28
8525 10656 10657 28
8526 10656 10658 28
8527 10656 10659 28
8528 10656 10660 28
8529 10661 10662 28
8530 10661 10663 28
8531 10661 10664 28
8532 10661 10665 28
8533 10666 10667 28
8534 10666 10668 28
8535 10666 10669 28
8536 10666 10670 28
8537 10671 10672 28
8538 10671 10673 28
8539 10671 10674 28
8540 10671 10675 28
8541 10676 10677 28
8542 10676 10678 28
8543 10676 10679 28
8544 10676 10680 28
8545 10681 10682 28
8546 10681 10683 28
8547 10681 10684 28
8548 10681 10685 28
8549 10686 10687 28
8550 10686 10688 28
8551 10686 10689 28
8552 10686 10690 28
8553 10691 10692 28
8554 10691 10693 28
8555 10691 10694 28
8556 10691 10695 28
8557 10696 10697 28
8558 10696 10698 28
8559 10696 10699 28
8560 10696 10700 28
8561 10701 10702 28
8562 10701 10703 28
8563 10701 10704 28
8564 10701 10705 28
8565 10706 10707 28
8566 10706 10708 28
8567 10706 10709 28
8568 10706 10710 28
8569 10711 10712 28
8570 10711 10713 28
8571 10711 10714 28
8572 10711 10715 28
8573 10716 10717 28
8574 10716 10718 28
8575 10716 10719 28
8576 10716 10720 28
8577 10721 10722 28
8578 10721 10723 28
8579 10721 10724 28
8580 10721 10725 28
8581 10726 10727 28
8582 10726 10728 28
8583 10726 10729 28
8584 10726 10730 28
8585 10731 10732 28
8586 10731 10733 28
8587 10731 10734 28
8588 10731 10735 28
8589 10736 10737 28
8590 10736 10738 28
8591 10736 10739 28
8592 10736 10740 28
8593 10741 10742 28
8594 10741 10743 28
8595 10741 10744 28
8596 10741 10745 28
8597 10746 10747 28
8598 10746 10748 28
8599 10746 10749 28
8600 10746 10750 28
8601 10751 10752 28
8602 10751 10753 28
8603 10751 10754 28
8604 10751 10755 28
8605 10756 10757 28
8606 10756 10758 28
8607 10756 10759 28
8608 10756 10760 28
8609 10761 10762 28
8610 10761 10763 28
8611 10761 10764 28
8612 10761 10765 28
8613 10766 10767 28
8614 10766 10768 28
8615 10766 10769 28
8616 10766 10770 28
8617 10771 10772 28
8618 10771 10773 28
8619 10771 10774 28
8620 10771 10775 28
8621 10776 10777 28
8622 10776 10778 28
8623 10776 10779 28
8624 10776 10780 28
8625 10781 10782 28
8626 10781 10783 28
8627 10781 10784 28
8628 10781 10785 28
8629 10786 10787 28
8630 10786 10788 28
8631 10786 10789 28
8632 10786 10790 28
8633 10791 10792 28
8634 10791 10793 28
8635 10791 10794 28
8636 10791 10795 28
8637 10796 10797 28
8638 10796 10798 28
8639 10796 10799 28
8640 10796 10800 28
8641 10801 10802 28
8642 10801 10803 28
8643 10801 10804 28
8644 10801 10805 28
8645 10806 10807 28
8646 10806 10808 28
8647 10806 10809 28
8648 10806 10810 28
8649 10811 10812 28
8650 10811 10813 28
8651 10811 10814 28
8652 10811 10815 28
8653 10816 10817 28
8654 10816 10818 28
8655 10816 10819 28
8656 10816 10820 28
8657 10821 10822 28
8658 10821 10823 28
8659 10821 10824 28
8660 10821 10825 28
8661 10826 10827 28
8662 10826 10828 28
8663 10826 10829 28
8664 10826 10830 28
8665 10831 10832 28
8666 10831 10833 28
8667 10831 10834 28
8668 10831 10835 28
8669 10836 10837 28
8670 10836 10838 28
8671 10836 10839 28
8672 10836 10840 28
8673 10841 10842 28
8674 10841 10843 28
8675 10841 10844 28
8676 10841 10845 28
8677 10846 10847 28
8678 10846 10848 28
8679 10846 10849 28
8680 10846 10850 28
8681 10851 10852 28
8682 10851 10853 28
8683 10851 10854 28
8684 10851 10855 28
8685 10856 10857 28
8686 10856 10858 28
8687 10856 10859 28
8688 10856 10860 28
8689 10861 10862 28
8690 10861 10863 28
8691 10861 10864 28
8692 10861 10865 28
8693 10866 10867 28
8694 10866 10868 28
8695 10866 10869 28
8696 10866 10870 28
8697 10871 10872 28
8698 10871 10873 28
8699 10871 10874 28
8700 10871 10875 28
8701 10876 10877 28
8702 10876 10878 28
8703 10876 10879 28
8704 10876 10880 28
8705 10881 10882 28
8706 10881 10883 28
8707 10881 10884 28
8708 10881 10885 28
8709 10886 10887 28
8710 10886 10888 28
8711 10886 10889 28
8712 10886 10890 28
8713 10891 10892 28
8714 10891 10893 28
8715 10891 10894 28
8716 10891 10895 28
8717 10896 10897 28
8718 10896 10898 28
8719 10896 10899 28
8720 10896 10900 28
8721 10901 10902 28
8722 10901 10903 28
8723 10901 10904 28
8724 10901 10905 28
8725 10906 10907 28
8726 10906 10908 28
8727 10906 10909 28
8728 10906 10910 28
8729 10911 10912 28
8730 10911 10913 28
8731 10911 10914 28
8732 10911 10915 28
8733 10916 10917 28
8734 10916 10918 28
8735 10916 10919 28
8736 10916 10920 28
8737 10921 10922 28
8738 10921 10923 28
8739 10921 10924 28
8740 10921 10925 28
8741 10926 10927 28
8742 10926 10928 28
8743 10926 10929 28
8744 10926 10930 28
8745 10931 10932 28
8746 10931 10933 28
8747 10931 10934 28
8748 10931 10935 28
8749 10936 10937 28
8750 10936 10938 28
8751 10936 10939 28
8752 10936 10940 28
8753 10941 10942 28
8754 10941 10943 28
8755 10941 10944 28
8756 10941 10945 28
8757 10946 10947 28
8758 10946 10948 28
8759 10946 10949 28
8760 10946 10950 28
8761 10951 10952 28
8762 10951 10953 28
8763 10951 10954 28
8764 10951 10955 28
8765 10956 10957 28
8766 10956 10958 28
8767 10956 10959 28
8768 10956 10960 28
8769 10961 10962 28
8770 10961 10963 28
8771 10961 10964 28
8772 10961 10965 28
8773 10966 10967 28
8774 10966 10968 28
8775 10966 10969 28
8776 10966 10970 28
8777 10971 10972 28
8778 10971 10973 28
8779 10971 10974 28
8780 10971 10975 28
8781 10976 10977 28
8782 10976 10978 28
8783 10976 10979 28
8784 10976 10980 28
8785 10981 10982 28
8786 10981 10983 28
8787 10981 10984 28
8788 10981 10985 28
8789 10986 10987 28
8790 10986 10988 28
8791 10986 10989 28
8792 10986 10990 28
8793 10991 10992 28
8794 10991 10993 28
8795 10991 10994 28
8796 10991 10995 28
8797 10996 10997 28
8798 10996 10998 28
8799 10996 10999 28
8800 10996 11000 28
8801 11001 11002 28
8802 11001 11003 28
8803 11001 11004 28
8804 11001 11005 28
8805 11006 11007 28
8806 11006 11008 28
8807 11006 11009 28
8808 11006 11010 28
8809 11011 11012 28
8810 11011 11013 28
8811 11011 11014 28
8812 11011 11015 28
8813 11016 11017 28
8814 11016 11018 28
8815 11016 11019 28
8816 11016 11020 28
8817 11021 11022 28
8818 11021 11023 28
8819 11021 11024 28
8820 11021 11025 28
8821 11026 11027 28
8822 11026 11028 28
8823 11026 11029 28
8824 11026 11030 28
8825 11031 11032 28
8826 11031 11033 28
8827 11031 11034 28
8828 11031 11035 28
8829 11036 11037 28
8830 11036 11038 28
8831 11036 11039 28
8832 11036 11040 28
8833 11041 11042 28
8834 11041 11043 28
8835 11041 11044 28
8836 11041 11045 28
8837 11046 11047 28
8838 11046 11048 28
8839 11046 11049 28
8840 11046 11050 28
8841 11051 11052 28
8842 11051 11053 28
8843 11051 11054 28
8844 11051 11055 28
8845 11056 11057 28
8846 11056 11058 28
8847 11056 11059 28
8848 11056 11060 28
8849 11061 11062 28
8850 11061 11063 28
8851 11061 11064 28
8852 11061 11065 28
8853 11066 11067 28
8854 11066 11068 28
8855 11066 11069 28
8856 11066 11070 28
8857 11071 11072 28
8858 11071 11073 28
8859 11071 11074 28
8860 11071 11075 28
8861 11076 11077 28
8862 11076 11078 28
8863 11076 11079 28
8864 11076 11080 28
8865 11081 11082 28
8866 11081 11083 28
8867 11081 11084 28
8868 11081 11085 28
8869 11086 11087 28
8870 11086 11088 28
8871 11086 11089 28
8872 11086 11090 28
8873 11091 11092 28
8874 11091 11093 28
8875 11091 11094 28
8876 11091 11095 28
8877 11096 11097 28
8878 11096 11098 28
8879 11096 11099 28
8880 11096 11100 28
8881 11101 11102 28
8882 11101 11103 28
8883 11101 11104 28
8884 11101 11105 28
8885 11106 11107 28
8886 11106 11108 28
8887 11106 11109 28
8888 11106 11110 28
8889 11111 11112 28
8890 11111 11113 28
8891 11111 11114 28
8892 11111 11115 28
8893 11116 11117 28
8894 11116 11118 28
8895 11116 11119 28
8896 11116 11120 28
8897 11121 11122 28
8898 11121 11123 28
8899 11121 11124 28
8900 11121 11125 28
8901 11126 11127 28
8902 11126 11128 28
8903 11126 11129 28
8904 11126 11130 28
8905 11131 11132 28
8906 11131 11133 28
8907 11131 11134 28
8908 11131 11135 28
8909 11136 11137 28
8910 11136 11138 28
8911 11136 11139 28
8912 11136 11140 28
8913 11141 11142 28
8914 11141 11143 28
8915 11141 11144 28
8916 11141 11145 28
8917 11146 11147 28
8918 11146 11148 28
8919 11146 11149 28
8920 11146 11150 28
8921 11151 11152 28
8922 11151 11153 28
8923 11151 11154 28
8924 11151 11155 28
8925 11156 11157 28
8926 11156 11158 28
8927 11156 11159 28
8928 11156 11160 28
8929 11161 11162 28
8930 11161 11163 28
8931 11161 11164 28
8932 11161 11165 28
8933 11166 11167 28
8934 11166 11168 28
8935 11166 11169 28
8936 11166 11170 28
8937 11171 11172 28
8938 11171 11173 28
8939 11171 11174 28
8940 11171 11175 28
8941 11176 11177 28
8942 11176 11178 28
8943 11176 11179 28
8944 11176 11180 28
8945 11181 11182 28
8946 11181 11183 28
8947 11181 11184 28
8948 11181 11185 28
8949 11186 11187 28
8950 11186 11188 28
8951 11186 11189 28
8952 11186 11190 28
8953 11191 11192 28
8954 11191 11193 28
8955 11191 11194 28
8956 11191 11195 28
8957 11196 11197 28
8958 11196 11198 28
8959 11196 11199 28
8960 11196 11200 28
8961 11201 11202 28
8962 11201 11203 28
8963 11201 11204 28
8964 11201 11205 28
8965 11206 11207 28
8966 11206 11208 28
8967 11206 11209 28
8968 11206 11210 28
8969 11211 11212 28
8970 11211 11213 28
8971 11211 11214 28
8972 11211 11215 28
8973 11216 11217 28
8974 11216 11218 28
8975 11216 11219 28
8976 11216 11220 28
8977 11221 11222 28
8978 11221 11223 28
8979 11221 11224 28
8980 11221 11225 28
8981 11226 11227 28
8982 11226 11228 28
8983 11226 11229 28
8984 11226 11230 28
8985 11231 11232 28
8986 11231 11233 28
8987 11231 11234 28
8988 11231 11235 28
8989 11236 11237 28
8990 11236 11238 28
8991 11236 11239 28
8992 11236 11240 28
8993 11241 11242 28
8994 11241 11243 28
8995 11241 11244 28
8996 11241 11245 28
8997 11246 11247 28
8998 11246 11248 28
8999 11246 11249 28
9000 11246 11250 28
9001 11251 11252 28
9002 11251 11253 28
9003 11251 11254 28
9004 11251 11255 28
9005 11256 11257 28
9006 11256 11258 28
9007 11256 11259 28
9008 11256 11260 28
9009 11261 11262 28
9010 11261 11263 28
9011 11261 11264 28
9012 11261 11265 28
9013 11266 11267 28
9014 11266 11268 28
9015 11266 11269 28
9016 11266 11270 28
9017 11271 11272 28
9018 11271 11273 28
9019 11271 11274 28
9020 11271 11275 28
9021 11276 11277 28
9022 11276 11278 28
9023 11276 11279 28
9024 11276 11280 28
9025 11281 11282 28
9026 11281 11283 28
9027 11281 11284 28
9028 11281 11285 28
9029 11286 11287 28
9030 11286 11288 28
9031 11286 11289 28
9032 11286 11290 28
9033 11291 11292 28
9034 11291 11293 28
9035 11291 11294 28
9036 11291 11295 28
9037 11296 11297 28
9038 11296 11298 28
9039 11296 11299 28
9040 11296 11300 28
9041 11301 11302 28
9042 11301 11303 28
9043 11301 11304 28
9044 11301 11305 28
9045 11306 11307 28
9046 11306 11308 28
9047 11306 11309 28
9048 11306 11310 28
9049 11311 11312 28
9050 11311 11313 28
9051 11311 11314 28
9052 11311 11315 28
9053 11316 11317 28
9054 11316 11318 28
9055 11316 11319 28
9056 11316 11320 28
9057 11321 11322 28
9058 11321 11323 28
9059 11321 11324 28
9060 11321 11325 28
9061 11326 11327 28
9062 11326 11328 28
9063 11326 11329 28
9064 11326 11330 28
9065 11331 11332 28
9066 11331 11333 28
9067 11331 11334 28
9068 11331 11335 28
9069 11336 11337 28
9070 11336 11338 28
9071 11336 11339 28
9072 11336 11340 28
9073 11341 11342 28
9074 11341 11343 28
9075 11341 11344 28
9076 11341 11345 28
9077 11346 11347 28
9078 11346 11348 28
9079 11346 11349 28
9080 11346 11350 28
9081 11351 11352 28
9082 11351 11353 28
9083 11351 11354 28
9084 11351 11355 28
9085 11356 11357 28
9086 11356 11358 28
9087 11356 11359 28
9088 11356 11360 28
9089 11361 11362 28
9090 11361 11363 28
9091 11361 11364 28
9092 11361 11365 28
9093 11366 11367 28
9094 11366 11368 28
9095 11366 11369 28
9096 11366 11370 28
9097 11371 11372 28
9098 11371 11373 28
9099 11371 11374 28
9100 11371 11375 28
9101 11376 11377 28
9102 11376 11378 28
9103 11376 11379 28
9104 11376 11380 28
9105 11381 11382 28
9106 11381 11383 28
9107 11381 11384 28
9108 11381 11385 28
9109 11386 11387 28
9110 11386 11388 28
9111 11386 11389 28
9112 11386 11390 28
9113 11391 11392 28
9114 11391 11393 28
9115 11391 11394 28
9116 11391 11395 28
9117 11396 11397 28
9118 11396 11398 28
9119 11396 11399 28
9120 11396 11400 28
9121 11401 11402 28
9122 11401 11403 28
9123 11401 11404 28
9124 11401 11405 28
9125 11406 11407 28
9126 11406 11408 28
9127 11406 11409 28
9128 11406 11410 28
9129 11411 11412 28
9130 11411 11413 28
9131 11411 11414 28
9132 11411 11415 28
9133 11416 11417 28
9134 11416 11418 28
9135 11416 11419 28
9136 11416 11420 28
9137 11421 11422 28
9138 11421 11423 28
9139 11421 11424 28
9140 11421 11425 28
9141 11426 11427 28
9142 11426 11428 28
9143 11426 11429 28
9144 11426 11430 28
9145 11431 11432 28
9146 11431 11433 28
9147 11431 11434 28
9148 11431 11435 28
9149 11436 11437 28
9150 11436 11438 28
9151 11436 11439 28
9152 11436 11440 28
9153 11441 11442 28
9154 11441 11443 28
9155 11441 11444 28
9156 11441 11445 28
9157 11446 11447 28
9158 11446 11448 28
9159 11446 11449 28
9160 11446 11450 28
9161 11451 11452 28
9162 11451 11453 28
9163 11451 11454 28
9164 11451 11455 28
9165 11456 11457 28
9166 11456 11458 28
9167 11456 11459 28
9168 11456 11460 28
9169 11461 11462 28
9170 11461 11463 28
9171 11461 11464 28
9172 11461 11465 28
9173 11466 11467 28
9174 11466 11468 28
9175 11466 11469 28
9176 11466 11470 28
9177 11471 11472 28
9178 11471 11473 28
9179 11471 11474 28
9180 11471 11475 28
9181 11476 11477 28
9182 11476 11478 28
9183 11476 11479 28
9184 11476 11480 28
9185 11481 11482 28
9186 11481 11483 28
9187 11481 11484 28
9188 11481 11485 28
9189 11486 11487 28
9190 11486 11488 28
9191 11486 11489 28
9192 11486 11490 28
9193 11491 11492 28
9194 11491 11493 28
9195 11491 11494 28
9196 11491 11495 28
9197 11496 11497 28
9198 11496 11498 28
9199 11496 11499 28
9200 11496 11500 28
9201 11501 11502 28
9202 11501 11503 28
9203 11501 11504 28
9204 11501 11505 28
9205 11506 11507 28
9206 11506 11508 28
9207 11506 11509 28
9208 11506 11510 28
9209 11511 11512 28
9210 11511 11513 28
9211 11511 11514 28
9212 11511 11515 28
9213 11516 11517 28
9214 11516 11518 28
9215 11516 11519 28
9216 11516 11520 28
9217 11521 11522 28
9218 11521 11523 28
9219 11521 11524 28
9220 11521 11525 28
9221 11526 11527 28
9222 11526 11528 28
9223 11526 11529 28
9224 11526 11530 28
9225 11531 11532 28
9226 11531 11533 28
9227 11531 11534 28
9228 11531 11535 28
9229 11536 11537 28
9230 11536 11538 28
9231 11536 11539 28
9232 11536 11540 28
9233 11541 11542 28
9234 11541 11543 28
9235 11541 11544 28
9236 11541 11545 28
9237 11546 11547 28
9238 11546 11548 28
9239 11546 11549 28
9240 11546 11550 28
9241 11551 11552 28
9242 11551 11553 28
9243 11551 11554 28
9244 11551 11555 28
9245 11556 11557 28
9246 11556 11558 28
9247 11556 11559 28
9248 11556 11560 28
9249 11561 11562 28
9250 11561 11563 28
9251 11561 11564 28
9252 11561 11565 28
9253 11566 11567 28
9254 11566 11568 28
9255 11566 11569 28
9256 11566 11570 28
9257 11571 11572 28
9258 11571 11573 28
9259 11571 11574 28
9260 11571 11575 28
9261 11576 11577 28
9262 11576 11578 28
9263 11576 11579 28
9264 11576 11580 28
9265 11581 11582 28
9266 11581 11583 28
9267 11581 11584 28
9268 11581 11585 28
9269 11586 11587 28
9270 11586 11588 28
9271 11586 11589 28
9272 11586 11590 28
9273 11591 11592 28
9274 11591 11593 28
9275 11591 11594 28
9276 11591 11595 28
9277 11596 11597 28
9278 11596 11598 28
9279 11596 11599 28
9280 11596 11600 28
9281 11601 11602 28
9282 11601 11603 28
9283 11601 11604 28
9284 11601 11605 28
9285 11606 11607 28
9286 11606 11608 28
9287 11606 11609 28
9288 11606 11610 28
9289 11611 11612 28
9290 11611 11613 28
9291 11611 11614 28
9292 11611 11615 28
9293 11616 11617 28
9294 11616 11618 28
9295 11616 11619 28
9296 11616 11620 28
9297 11621 11622 28
9298 11621 11623 28
9299 11621 11624 28
9300 11621 11625 28
9301 11626 11627 28
9302 11626 11628 28
9303 11626 11629 28
9304 11626 11630 28
9305 11631 11632 28
9306 11631 11633 28
9307 11631 11634 28
9308 11631 11635 28
9309 11636 11637 28
9310 11636 11638 28
9311 11636 11639 28
9312 11636 11640 28
9313 11641 11642 28
9314 11641 11643 28
9315 11641 11644 28
9316 11641 11645 28
9317 11646 11647 28
9318 11646 11648 28
9319 11646 11649 28
9320 11646 11650 28
9321 11651 11652 28
9322 11651 11653 28
9323 11651 11654 28
9324 11651 11655 28
9325 11656 11657 28
9326 11656 11658 28
9327 11656 11659 28
9328 11656 11660 28
9329 11661 11662 28
9330 11661 11663 28
9331 11661 11664 28
9332 11661 11665 28
9333 11666 11667 28
9334 11666 11668 28
9335 11666 11669 28
9336 11666 11670 28
9337 11671 11672 28
9338 11671 11673 28
9339 11671 11674 28
9340 11671 11675 28
9341 11676 11677 28
9342 11676 11678 28
9343 11676 11679 28
9344 11676 11680 28
9345 11681 11682 28
9346 11681 11683 28
9347 11681 11684 28
9348 11681 11685 28
9349 11686 11687 28
9350 11686 11688 28
9351 11686 11689 28
9352 11686 11690 28
9353 11691 11692 28
9354 11691 11693 28
9355 11691 11694 28
9356 11691 11695 28
9357 11696 11697 28
9358 11696 11698 28
9359 11696 11699 28
9360 11696 11700 28
9361 11701 11702 28
9362 11701 11703 28
9363 11701 11704 28
9364 11701 11705 28
9365 11706 11707 28
9366 11706 11708 28
9367 11706 11709 28
9368 11706 11710 28
9369 11711 11712 28
9370 11711 11713 28
9371 11711 11714 28
9372 11711 11715 28
9373 11716 11717 28
9374 11716 11718 28
9375 11716 11719 28
9376 11716 11720 28
9377 11721 11722 28
9378 11721 11723 28
9379 11721 11724 28
9380 11721 11725 28
9381 11726 11727 28
9382 11726 11728 28
9383 11726 11729 28
9384 11726 11730 28
9385 11731 11732 28
9386 11731 11733 28
9387 11731 11734 28
9388 11731 11735 28
9389 11736 11737 28
9390 11736 11738 28
9391 11736 11739 28
9392 11736 11740 28
9393 11741 11742 28
9394 11741 11743 28
9395 11741 11744 28
9396 11741 11745 28
9397 11746 11747 28
9398 11746 11748 28
9399 11746 11749 28
9400 11746 11750 28
9401 11751 11752 28
9402 11751 11753 28
9403 11751 11754 28
9404 11751 11755 28
9405 11756 11757 28
9406 11756 11758 28
9407 11756 11759 28
9408 11756 11760 28
9409 11761 11762 28
9410 11761 11763 28
9411 11761 11764 28
9412 11761 11765 28
9413 11766 11767 28
9414 11766 11768 28
9415 11766 11769 28
9416 11766 11770 28
9417 11771 11772 28
9418 11771 11773 28
9419 11771 11774 28
9420 11771 11775 28
9421 11776 11777 28
9422 11776 11778 28
9423 11776 11779 28
9424 11776 11780 28
9425 11781 11782 28
9426 11781 11783 28
9427 11781 11784 28
9428 11781 11785 28
9429 11786 11787 28
9430 11786 11788 28
9431 11786 11789 28
9432 11786 11790 28
9433 11791 11792 28
9434 11791 11793 28
9435 11791 11794 28
9436 11791 11795 28
9437 11796 11797 28
9438 11796 11798 28
9439 11796 11799 28
9440 11796 11800 28
9441 11801 11802 28
9442 11801 11803 28
9443 11801 11804 28
9444 11801 11805 28
9445 11806 11807 28
9446 11806 11808 28
9447 11806 11809 28
9448 11806 11810 28
9449 11811 11812 28
9450 11811 11813 28
9451 11811 11814 28
9452 11811 11815 28
9453 11816 11817 28
9454 11816 11818 28
9455 11816 11819 28
9456 11816 11820 28
9457 11821 11822 28
9458 11821 11823 28
9459 11821 11824 28
9460 11821 11825 28
9461 11826 11827 28
9462 11826 11828 28
9463 11826 11829 28
9464 11826 11830 28
9465 11831 11832 28
9466 11831 11833 28
9467 11831 11834 28
9468 11831 11835 28
9469 11836 11837 28
9470 11836 11838 28
9471 11836 11839 28
9472 11836 11840 28
9473 11841 11842 28
9474 11841 11843 28
9475 11841 11844 28
9476 11841 11845 28
9477 11846 11847 28
9478 11846 11848 28
9479 11846 11849 28
9480 11846 11850 28
9481 11851 11852 28
9482 11851 11853 28
9483 11851 11854 28
9484 11851 11855 28
9485 11856 11857 28
9486 11856 11858 28
9487 11856 11859 28
9488 11856 11860 28
9489 11861 11862 28
9490 11861 11863 28
9491 11861 11864 28
9492 11861 11865 28
9493 11866 11867 28
9494 11866 11868 28
9495 11866 11869 28
9496 11866 11870 28
9497 11871 11872 28
9498 11871 11873 28
9499 11871 11874 28
9500 11871 11875 28
9501 11876 11877 28
9502 11876 11878 28
9503 11876 11879 28
9504 11876 11880 28
9505 11881 11882 28
9506 11881 11883 28
9507 11881 11884 28
9508 11881 11885 28
9509 11886 11887 28
9510 11886 11888 28
9511 11886 11889 28
9512 11886 11890 28
9513 11891 11892 28
9514 11891 11893 28
9515 11891 11894 28
9516 11891 11895 28
9517 11896 11897 28
9518 11896 11898 28
9519 11896 11899 28
9520 11896 11900 28
9521 11901 11902 28
9522 11901 11903 28
9523 11901 11904 28
9524 11901 11905 28
9525 11906 11907 28
9526 11906 11908 28
9527 11906 11909 28
9528 11906 11910 28
9529 11911 11912 28
9530 11911 11913 28
9531 11911 11914 28
9532 11911 11915 28
9533 11916 11917 28
9534 11916 11918 28
9535 11916 11919 28
9536 11916 11920 28
9537 11921 11922 28
9538 11921 11923 28
9539 11921 11924 28
9540 11921 11925 28
9541 11926 11927 28
9542 11926 11928 28
9543 11926 11929 28
9544 11926 11930 28
9545 11931 11932 28
9546 11931 11933 28
9547 11931 11934 28
9548 11931 11935 28
9549 11936 11937 28
9550 11936 11938 28
9551 11936 11939 28
9552 11936 11940 28
9553 11941 11942 28
9554 11941 11943 28
9555 11941 11944 28
9556 11941 11945 28
9557 11946 11947 28
9558 11946 11948 28
9559 11946 11949 28
9560 11946 11950 28
9561 11951 11952 28
9562 11951 11953 28
9563 11951 11954 28
9564 11951 11955 28
9565 11956 11957 28
9566 11956 11958 28
9567 11956 11959 28
9568 11956 11960 28
9569 11961 11962 28
9570 11961 11963 28
9571 11961 11964 28
9572 11961 11965 28
9573 11966 11967 28
9574 11966 11968 28
9575 11966 11969 28
9576 11966 11970 28
9577 11971 11972 28
9578 11971 11973 28
9579 11971 11974 28
9580 11971 11975 28
9581 11976 11977 28
9582 11976 11978 28
9583 11976 11979 28
9584 11976 11980 28
9585 11981 11982 28
9586 11981 11983 28
9587 11981 11984 28
9588 11981 11985 28
9589 11986 11987 28
9590 11986 11988 28
9591 11986 11989 28
9592 11986 11990 28
9593 11991 11992 28
9594 11991 11993 28
9595 11991 11994 28
9596 11991 11995 28
9597 11996 11997 28
9598 11996 11998 28
9599 11996 11999 28
9600 11996 12000 28
9601 12001 12002 28
9602 12001 12003 28
9603 12001 12004 28
9604 12001 12005 28
9605 12006 12007 28
9606 12006 12008 28
9607 12006 12009 28
9608 12006 12010 28
9609 12011 12012 28
9610 12011 12013 28
9611 12011 12014 28
9612 12011 12015 28
9613 12016 12017 28
9614 12016 12018 28
9615 12016 12019 28
9616 12016 12020 28
9617 12021 12022 28
9618 12021 12023 28
9619 12021 12024 28
9620 12021 12025 28
9621 12026 12027 28
9622 12026 12028 28
9623 12026 12029 28
9624 12026 12030 28
9625 12031 12032 28
9626 12031 12033 28
9627 12031 12034 28
9628 12031 12035 28
9629 12036 12037 28
9630 12036 12038 28
9631 12036 12039 28
9632 12036 12040 28
9633 12041 12042 28
9634 12041 12043 28
9635 12041 12044 28
9636 12041 12045 28
9637 12046 12047 28
9638 12046 12048 28
9639 12046 12049 28
9640 12046 12050 28
9641 12051 12052 28
9642 12051 12053 28
9643 12051 12054 28
9644 12051 12055 28
9645 12056 12057 28
9646 12056 12058 28
9647 12056 12059 28
9648 12056 12060 28
9649 12061 12062 28
9650 12061 12063 28
9651 12061 12064 28
9652 12061 12065 28
9653 12066 12067 28
9654 12066 12068 28
9655 12066 12069 28
9656 12066 12070 28
9657 12071 12072 28
9658 12071 12073 28
9659 12071 12074 28
9660 12071 12075 28
9661 12076 12077 28
9662 12076 12078 28
9663 12076 12079 28
9664 12076 12080 28
9665 12081 12082 28
9666 12081 12083 28
9667 12081 12084 28
9668 12081 12085 28
9669 12086 12087 28
9670 12086 12088 28
9671 12086 12089 28
9672 12086 12090 28
9673 12091 12092 28
9674 12091 12093 28
9675 12091 12094 28
9676 12091 12095 28
9677 12096 12097 28
9678 12096 12098 28
9679 12096 12099 28
9680 12096 12100 28
9681 12101 12102 28
9682 12101 12103 28
9683 12101 12104 28
9684 12101 12105 28
9685 12106 12107 28
9686 12106 12108 28
9687 12106 12109 28
9688 12106 12110 28
9689 12111 12112 28
9690 12111 12113 28
9691 12111 12114 28
9692 12111 12115 28
9693 12116 12117 28
9694 12116 12118 28
9695 12116 12119 28
9696 12116 12120 28
9697 12121 12122 28
9698 12121 12123 28
9699 12121 12124 28
9700 12121 12125 28
9701 12126 12127 28
9702 12126 12128 28
9703 12126 12129 28
9704 12126 12130 28
9705 12131 12132 28
9706 12131 12133 28
9707 12131 12134 28
9708 12131 12135 28
9709 12136 12137 28
9710 12136 12138 28
9711 12136 12139 28
9712 12136 12140 28
9713 12141 12142 28
9714 12141 12143 28
9715 12141 12144 28
9716 12141 12145 28
9717 12146 12147 28
9718 12146 12148 28
9719 12146 12149 28
9720 12146 12150 28
9721 12151 12152 28
9722 12151 12153 28
9723 12151 12154 28
9724 12151 12155 28
9725 12156 12157 28
9726 12156 12158 28
9727 12156 12159 28
9728 12156 12160 28
9729 12161 12162 28
9730 12161 12163 28
9731 12161 12164 28
9732 12161 12165 28
9733 12166 12167 28
9734 12166 12168 28
9735 12166 12169 28
9736 12166 12170 28
9737 12171 12172 28
9738 12171 12173 28
9739 12171 12174 28
9740 12171 12175 28
9741 12176 12177 28
9742 12176 12178 28
9743 12176 12179 28
9744 12176 12180 28
9745 12181 12182 28
9746 12181 12183 28
9747 12181 12184 28
9748 12181 12185 28
9749 12186 12187 28
9750 12186 12188 28
9751 12186 12189 28
9752 12186 12190 28
9753 12191 12192 28
9754 12191 12193 28
9755 12191 12194 28
9756 12191 12195 28
9757 12196 12197 28
9758 12196 12198 28
9759 12196 12199 28
9760 12196 12200 28
9761 12201 12202 28
9762 12201 12203 28
9763 12201 12204 28
9764 12201 12205 28
9765 12206 12207 28
9766 12206 12208 28
9767 12206 12209 28
9768 12206 12210 28
9769 12211 12212 28
9770 12211 12213 28
9771 12211 12214 28
9772 12211 12215 28
9773 12216 12217 28
9774 12216 12218 28
9775 12216 12219 28
9776 12216 12220 28
9777 12221 12222 28
9778 12221 12223 28
9779 12221 12224 28
9780 12221 12225 28
9781 12226 12227 28
9782 12226 12228 28
9783 12226 12229 28
9784 12226 12230 28
9785 12231 12232 28
9786 12231 12233 28
9787 12231 12234 28
9788 12231 12235 28
9789 12236 12237 28
9790 12236 12238 28
9791 12236 12239 28
9792 12236 12240 28
9793 12241 12242 28
9794 12241 12243 28
9795 12241 12244 28
9796 12241 12245 28
9797 12246 12247 28
9798 12246 12248 28
9799 12246 12249 28
9800 12246 12250 28
9801 12251 12252 28
9802 12251 12253 28
9803 12251 12254 28
9804 12251 12255 28
9805 12256 12257 28
9806 12256 12258 28
9807 12256 12259 28
9808 12256 12260 28
9809 12261 12262 28
9810 12261 12263 28
9811 12261 12264 28
9812 12261 12265 28
9813 12266 12267 28
9814 12266 12268 28
9815 12266 12269 28
9816 12266 12270 28
9817 12271 12272 28
9818 12271 12273 28
9819 12271 12274 28
9820 12271 12275 28
9821 12276 12277 28
9822 12276 12278 28
9823 12276 12279 28
9824 12276 12280 28
9825 12281 12282 28
9826 12281 12283 28
9827 12281 12284 28
9828 12281 12285 28
9829 12286 12287 28
9830 12286 12288 28
9831 12286 12289 28
9832 12286 12290 28
9833 12291 12292 28
9834 12291 12293 28
9835 12291 12294 28
9836 12291 12295 28
9837 12296 12297 28
9838 12296 12298 28
9839 12296 12299 28
9840 12296 12300 28
9841 12301 12302 28
9842 12301 12303 28
9843 12301 12304 28
9844 12301 12305 28
9845 12306 12307 28
9846 12306 12308 28
9847 12306 12309 28
9848 12306 12310 28
9849 12311 12312 28
9850 12311 12313 28
9851 12311 12314 28
9852 12311 12315 28
9853 12316 12317 28
9854 12316 12318 28
9855 12316 12319 28
9856 12316 12320 28
9857 12321 12322 28
9858 12321 12323 28
9859 12321 12324 28
9860 12321 12325 28
9861 12326 12327 28
9862 12326 12328 28
9863 12326 12329 28
9864 12326 12330 28
9865 12331 12332 28
9866 12331 12333 28
9867 12331 12334 28
9868 12331 12335 28
9869 12336 12337 28
9870 12336 12338 28
9871 12336 12339 28
9872 12336 12340 28
9873 12341 12342 28
9874 12341 12343 28
9875 12341 12344 28
9876 12341 12345 28
9877 12346 12347 28
9878 12346 12348 28
9879 12346 12349 28
9880 12346 12350 28
9881 12351 12352 28
9882 12351 12353 28
9883 12351 12354 28
9884 12351 12355 28
9885 12356 12357 28
9886 12356 12358 28
9887 12356 12359 28
9888 12356 12360 28
9889 12361 12362 28
9890 12361 12363 28
9891 12361 12364 28
9892 12361 12365 28
9893 12366 12367 28
9894 12366 12368 28
9895 12366 12369 28
9896 12366 12370 28
9897 12371 12372 28
9898 12371 12373 28
9899 12371 12374 28
9900 12371 12375 28
9901 12376 12377 28
9902 12376 12378 28
9903 12376 12379 28
9904 12376 12380 28
9905 12381 12382 28
9906 12381 12383 28
9907 12381 12384 28
9908 12381 12385 28
9909 12386 12387 28
9910 12386 12388 28
9911 12386 12389 28
9912 12386 12390 28
9913 12391 12392 28
9914 12391 12393 28
9915 12391 12394 28
9916 12391 12395 28
9917 12396 12397 28
9918 12396 12398 28
9919 12396 12399 28
9920 12396 12400 28
9921 12401 12402 28
9922 12401 12403 28
9923 12401 12404 28
9924 12401 12405 28
9925 12406 12407 28
9926 12406 12408 28
9927 12406 12409 28
9928 12406 12410 28
9929 12411 12412 28
9930 12411 12413 28
9931 12411 12414 28
9932 12411 12415 28
9933 12416 12417 28
9934 12416 12418 28
9935 12416 12419 28
9936 12416 12420 28
9937 12421 12422 28
9938 12421 12423 28
9939 12421 12424 28
9940 12421 12425 28
9941 12426 12427 28
9942 12426 12428 28
9943 12426 12429 28
9944 12426 12430 28
9945 12431 12432 28
9946 12431 12433 28
9947 12431 12434 28
9948 12431 12435 28
9949 12436 12437 28
9950 12436 12438 28
9951 12436 12439 28
9952 12436 12440 28
9953 12441 12442 28
9954 12441 12443 28
9955 12441 12444 28
9956 12441 12445 28
9957 12446 12447 28
9958 12446 12448 28
9959 12446 12449 28
9960 12446 12450 28
9961 12451 12452 28
9962 12451 12453 28
9963 12451 12454 28
9964 12451 12455 28
9965 12456 12457 28
9966 12456 12458 28
9967 12456 12459 28
9968 12456 12460 28
9969 12461 12462 28
9970 12461 12463 28
9971 12461 12464 28
9972 12461 12465 28
9973 12466 12467 28
9974 12466 12468 28
9975 12466 12469 28
9976 12466 12470 28
9977 12471 12472 28
9978 12471 12473 28
9979 12471 12474 28
9980 12471 12475 28
9981 12476 12477 28
9982 12476 12478 28
9983 12476 12479 28
9984 12476 12480 28
9985 12481 12482 28
9986 12481 12483 28
9987 12481 12484 28
9988 12481 12485 28
9989 12486 12487 28
9990 12486 12488 28
9991 12486 12489 28
9992 12486 12490 28
9993 12491 12492 28
9994 12491 12493 28
9995 12491 12494 28
9996 12491 12495 28
9997 12496 12497 28
9998 12496 12498 28
9999 12496 12499 28
10000 12496 12500 28
10001 12501 12502 28
10002 12501 12503 28
10003 12501 12504 28
10004 12501 12505 28
10005 12506 12507 28
10006 12506 12508 28
10007 12506 12509 28
10008 12506 12510 28
10009 12511 12512 28
10010 12511 12513 28
10011 12511 12514 28
10012 12511 12515 28
10013 12516 12517 28
10014 12516 12518 28
10015 12516 12519 28
10016 12516 12520 28
10017 12521 12522 28
10018 12521 12523 28
10019 12521 12524 28
10020 12521 12525 28
10021 12526 12527 28
10022 12526 12528 28
10023 12526 12529 28
10024 12526 12530 28
10025 12531 12532 28
10026 12531 12533 28
10027 12531 12534 28
10028 12531 12535 28
10029 12536 12537 28
10030 12536 12538 28
10031 12536 12539 28
10032 12536 12540 28
10033 12541 12542 28
10034 12541 12543 28
10035 12541 12544 28
10036 12541 12545 28
10037 12546 12547 28
10038 12546 12548 28
10039 12546 12549 28
10040 12546 12550 28
10041 12551 12552 28
10042 12551 12553 28
10043 12551 12554 28
10044 12551 12555 28
10045 12556 12557 28
10046 12556 12558 28
10047 12556 12559 28
10048 12556 12560 28
10049 12561 12562 28
10050 12561 12563 28
10051 12561 12564 28
10052 12561 12565 28
10053 12566 12567 28
10054 12566 12568 28
10055 12566 12569 28
10056 12566 12570 28
10057 12571 12572 28
10058 12571 12573 28
10059 12571 12574 28
10060 12571 12575 28
10061 12576 12577 28
10062 12576 12578 28
10063 12576 12579 28
10064 12576 12580 28
10065 12581 12582 28
10066 12581 12583 28
10067 12581 12584 28
10068 12581 12585 28
10069 12586 12587 28
10070 12586 12588 28
10071 12586 12589 28
10072 12586 12590 28
10073 12591 12592 28
10074 12591 12593 28
10075 12591 12594 28
10076 12591 12595 28
10077 12596 12597 28
10078 12596 12598 28
10079 12596 12599 28
10080 12596 12600 28
10081 12601 12602 28
10082 12601 12603 28
10083 12601 12604 28
10084 12601 12605 28
10085 12606 12607 28
10086 12606 12608 28
10087 12606 12609 28
10088 12606 12610 28
10089 12611 12612 28
10090 12611 12613 28
10091 12611 12614 28
10092 12611 12615 28
10093 12616 12617 28
10094 12616 12618 28
10095 12616 12619 28
10096 12616 12620 28
10097 12621 12622 28
10098 12621 12623 28
10099 12621 12624 28
10100 12621 12625 28
10101 12626 12627 28
10102 12626 12628 28
10103 12626 12629 28
10104 12626 12630 28
10105 12631 12632 28
10106 12631 12633 28
10107 12631 12634 28
10108 12631 12635 28
10109 12636 12637 28
10110 12636 12638 28
10111 12636 12639 28
10112 12636 12640 28
10113 12641 12642 28
10114 12641 12643 28
10115 12641 12644 28
10116 12641 12645 28
10117 12646 12647 28
10118 12646 12648 28
10119 12646 12649 28
10120 12646 12650 28
10121 12651 12652 28
10122 12651 12653 28
10123 12651 12654 28
10124 12651 12655 28
10125 12656 12657 28
10126 12656 12658 28
10127 12656 12659 28
10128 12656 12660 28
10129 12661 12662 28
10130 12661 12663 28
10131 12661 12664 28
10132 12661 12665 28
10133 12666 12667 28
10134 12666 12668 28
10135 12666 12669 28
10136 12666 12670 28
10137 12671 12672 28
10138 12671 12673 28
10139 12671 12674 28
10140 12671 12675 28
10141 12676 12677 28
10142 12676 12678 28
10143 12676 12679 28
10144 12676 12680 28
10145 12681 12682 28
10146 12681 12683 28
10147 12681 12684 28
10148 12681 12685 28
10149 12686 12687 28
10150 12686 12688 28
10151 12686 12689 28
10152 12686 12690 28
10153 12691 12692 28
10154 12691 12693 28
10155 12691 12694 28
10156 12691 12695 28
10157 12696 12697 28
10158 12696 12698 28
10159 12696 12699 28
10160 12696 12700 28
10161 12701 12702 28
10162 12701 12703 28
10163 12701 12704 28
10164 12701 12705 28
10165 12706 12707 28
10166 12706 12708 28
10167 12706 12709 28
10168 12706 12710 28
10169 12711 12712 28
10170 12711 12713 28
10171 12711 12714 28
10172 12711 12715 28
10173 12716 12717 28
10174 12716 12718 28
10175 12716 12719 28
10176 12716 12720 28
10177 12721 12722 28
10178 12721 12723 28
10179 12721 12724 28
10180 12721 12725 28
10181 12726 12727 28
10182 12726 12728 28
10183 12726 12729 28
10184 12726 12730 28
10185 12731 12732 28
10186 12731 12733 28
10187 12731 12734 28
10188 12731 12735 28
10189 12736 12737 28
10190 12736 12738 28
10191 12736 12739 28
10192 12736 12740 28
10193 12741 12742 28
10194 12741 12743 28
10195 12741 12744 28
10196 12741 12745 28
10197 12746 12747 28
10198 12746 12748 28
10199 12746 12749 28
10200 12746 12750 28
10201 12751 12752 28
10202 12751 12753 28
10203 12751 12754 28
10204 12751 12755 28
10205 12756 12757 28
10206 12756 12758 28
10207 12756 12759 28
10208 12756 12760 28
10209 12761 12762 28
10210 12761 12763 28
10211 12761 12764 28
10212 12761 12765 28
10213 12766 12767 28
10214 12766 12768 28
10215 12766 12769 28
10216 12766 12770 28
10217 12771 12772 28
10218 12771 12773 28
10219 12771 12774 28
10220 12771 12775 28
10221 12776 12777 28
10222 12776 12778 28
10223 12776 12779 28
10224 12776 12780 28
10225 12781 12782 28
10226 12781 12783 28
10227 12781 12784 28
10228 12781 12785 28
10229 12786 12787 28
10230 12786 12788 28
10231 12786 12789 28
10232 12786 12790 28
10233 12791 12792 28
10234 12791 12793 28
10235 12791 12794 28
10236 12791 12795 28
10237 12796 12797 28
10238 12796 12798 28
10239 12796 12799 28
10240 12796 12800 28
10241 12801 12802 28
10242 12801 12803 28
10243 12801 12804 28
10244 12801 12805 28
10245 12806 12807 28
10246 12806 12808 28
10247 12806 12809 28
10248 12806 12810 28
10249 12811 12812 28
10250 12811 12813 28
10251 12811 12814 28
10252 12811 12815 28
10253 12816 12817 28
10254 12816 12818 28
10255 12816 12819 28
10256 12816 12820 28
10257 12821 12822 28
10258 12821 12823 28
10259 12821 12824 28
10260 12821 12825 28
10261 12826 12827 28
10262 12826 12828 28
10263 12826 12829 28
10264 12826 12830 28
10265 12831 12832 28
10266 12831 12833 28
10267 12831 12834 28
10268 12831 12835 28
10269 12836 12837 28
10270 12836 12838 28
10271 12836 12839 28
10272 12836 12840 28
10273 12841 12842 28
10274 12841 12843 28
10275 12841 12844 28
10276 12841 12845 28
10277 12846 12847 28
10278 12846 12848 28
10279 12846 12849 28
10280 12846 12850 28
10281 12851 12852 28
10282 12851 12853 28
10283 12851 12854 28
10284 12851 12855 28
10285 12856 12857 28
10286 12856 12858 28
10287 12856 12859 28
10288 12856 12860 28
10289 12861 12862 28
10290 12861 12863 28
10291 12861 12864 28
10292 12861 12865 28
10293 12866 12867 28
10294 12866 12868 28
10295 12866 12869 28
10296 12866 12870 28
10297 12871 12872 28
10298 12871 12873 28
10299 12871 12874 28
10300 12871 12875 28
10301 12876 12877 28
10302 12876 12878 28
10303 12876 12879 28
10304 12876 12880 28
10305 12881 12882 28
10306 12881 12883 28
10307 12881 12884 28
10308 12881 12885 28
10309 12886 12887 28
10310 12886 12888 28
10311 12886 12889 28
10312 12886 12890 28
10313 12891 12892 28
10314 12891 12893 28
10315 12891 12894 28
10316 12891 12895 28
10317 12896 12897 28
10318 12896 12898 28
10319 12896 12899 28
10320 12896 12900 28
10321 12901 12902 28
10322 12901 12903 28
10323 12901 12904 28
10324 12901 12905 28
10325 12906 12907 28
10326 12906 12908 28
10327 12906 12909 28
10328 12906 12910 28
10329 12911 12912 28
10330 12911 12913 28
10331 12911 12914 28
10332 12911 12915 28
10333 12916 12917 28
10334 12916 12918 28
10335 12916 12919 28
10336 12916 12920 28
10337 12921 12922 28
10338 12921 12923 28
10339 12921 12924 28
10340 12921 12925 28
10341 12926 12927 28
10342 12926 12928 28
10343 12926 12929 28
10344 12926 12930 28
10345 12931 12932 28
10346 12931 12933 28
10347 12931 12934 28
10348 12931 12935 28
10349 12936 12937 28
10350 12936 12938 28
10351 12936 12939 28
10352 12936 12940 28
10353 12941 12942 28
10354 12941 12943 28
10355 12941 12944 28
10356 12941 12945 28
10357 12946 12947 28
10358 12946 12948 28
10359 12946 12949 28
10360 12946 12950 28
10361 12951 12952 28
10362 12951 12953 28
10363 12951 12954 28
10364 12951 12955 28
10365 12956 12957 28
10366 12956 12958 28
10367 12956 12959 28
10368 12956 12960 28
10369 12961 12962 28
10370 12961 12963 28
10371 12961 12964 28
10372 12961 12965 28
10373 12966 12967 28
10374 12966 12968 28
10375 12966 12969 28
10376 12966 12970 28
10377 12971 12972 28
10378 12971 12973 28
10379 12971 12974 28
10380 12971 12975 28
10381 12976 12977 28
10382 12976 12978 28
10383 12976 12979 28
10384 12976 12980 28
10385 12981 12982 28
10386 12981 12983 28
10387 12981 12984 28
10388 12981 12985 28
10389 12986 12987 28
10390 12986 12988 28
10391 12986 12989 28
10392 12986 12990 28
10393 12991 12992 28
10394 12991 12993 28
10395 12991 12994 28
10396 12991 12995 28
10397 12996 12997 28
10398 12996 12998 28
10399 12996 12999 28
10400 12996 13000 28
10401 13001 13002 28
10402 13001 13003 28
10403 13001 13004 28
10404 13001 13005 28
10405 13006 13007 28
10406 13006 13008 28
10407 13006 13009 28
10408 13006 13010 28
10409 13011 13012 28
10410 13011 13013 28
10411 13011 13014 28
10412 13011 13015 28
10413 13016 13017 28
10414 13016 13018 28
10415 13016 13019 28
10416 13016 13020 28
10417 13021 13022 28
10418 13021 13023 28
10419 13021 13024 28
10420 13021 13025 28
10421 13026 13027 28
10422 13026 13028 28
10423 13026 13029 28
10424 13026 13030 28
10425 13031 13032 28
10426 13031 13033 28
10427 13031 13034 28
10428 13031 13035 28
10429 13036 13037 28
10430 13036 13038 28
10431 13036 13039 28
10432 13036 13040 28
10433 13041 13042 28
10434 13041 13043 28
10435 13041 13044 28
10436 13041 13045 28
10437 13046 13047 28
10438 13046 13048 28
10439 13046 13049 28
10440 13046 13050 28
10441 13051 13052 28
10442 13051 13053 28
10443 13051 13054 28
10444 13051 13055 28
10445 13056 13057 28
10446 13056 13058 28
10447 13056 13059 28
10448 13056 13060 28
10449 13061 13062 28
10450 13061 13063 28
10451 13061 13064 28
10452 13061 13065 28
10453 13066 13067 28
10454 13066 13068 28
10455 13066 13069 28
10456 13066 13070 28
10457 13071 13072 28
10458 13071 13073 28
10459 13071 13074 28
10460 13071 13075 28
10461 13076 13077 28
10462 13076 13078 28
10463 13076 13079 28
10464 13076 13080 28
10465 13081 13082 28
10466 13081 13083 28
10467 13081 13084 28
10468 13081 13085 28
10469 13086 13087 28
10470 13086 13088 28
10471 13086 13089 28
10472 13086 13090 28
10473 13091 13092 28
10474 13091 13093 28
10475 13091 13094 28
10476 13091 13095 28
10477 13096 13097 28
10478 13096 13098 28
10479 13096 13099 28
10480 13096 13100 28
10481 13101 13102 28
10482 13101 13103 28
10483 13101 13104 28
10484 13101 13105 28
10485 13106 13107 28
10486 13106 13108 28
10487 13106 13109 28
10488 13106 13110 28
10489 13111 13112 28
10490 13111 13113 28
10491 13111 13114 28
10492 13111 13115 28
10493 13116 13117 28
10494 13116 13118 28
10495 13116 13119 28
10496 13116 13120 28
10497 13121 13122 28
10498 13121 13123 28
10499 13121 13124 28
10500 13121 13125 28
10501 13126 13127 28
10502 13126 13128 28
10503 13126 13129 28
10504 13126 13130 28
10505 13131 13132 28
10506 13131 13133 28
10507 13131 13134 28
10508 13131 13135 28
10509 13136 13137 28
10510 13136 13138 28
10511 13136 13139 28
10512 13136 13140 28
10513 13141 13142 28
10514 13141 13143 28
10515 13141 13144 28
10516 13141 13145 28
10517 13146 13147 28
10518 13146 13148 28
10519 13146 13149 28
10520 13146 13150 28
10521 13151 13152 28
10522 13151 13153 28
10523 13151 13154 28
10524 13151 13155 28
10525 13156 13157 28
10526 13156 13158 28
10527 13156 13159 28
10528 13156 13160 28
10529 13161 13162 28
10530 13161 13163 28
10531 13161 13164 28
10532 13161 13165 28
10533 13166 13167 28
10534 13166 13168 28
10535 13166 13169 28
10536 13166 13170 28
10537 13171 13172 28
10538 13171 13173 28
10539 13171 13174 28
10540 13171 13175 28
10541 13176 13177 28
10542 13176 13178 28
10543 13176 13179 28
10544 13176 13180 28
10545 13181 13182 28
10546 13181 13183 28
10547 13181 13184 28
10548 13181 13185 28
10549 13186 13187 28
10550 13186 13188 28
10551 13186 13189 28
10552 13186 13190 28
10553 13191 13192 28
10554 13191 13193 28
10555 13191 13194 28
10556 13191 13195 28
10557 13196 13197 28
10558 13196 13198 28
10559 13196 13199 28
10560 13196 13200 28
10561 13201 13202 28
10562 13201 13203 28
10563 13201 13204 28
10564 13201 13205 28
10565 13206 13207 28
10566 13206 13208 28
10567 13206 13209 28
10568 13206 13210 28
10569 13211 13212 28
10570 13211 13213 28
10571 13211 13214 28
10572 13211 13215 28
10573 13216 13217 28
10574 13216 13218 28
10575 13216 13219 28
10576 13216 13220 28
10577 13221 13222 28
10578 13221 13223 28
10579 13221 13224 28
10580 13221 13225 28
10581 13226 13227 28
10582 13226 13228 28
10583 13226 13229 28
10584 13226 13230 28
10585 13231 13232 28
10586 13231 13233 28
10587 13231 13234 28
10588 13231 13235 28
10589 13236 13237 28
10590 13236 13238 28
10591 13236 13239 28
10592 13236 13240 28
10593 13241 13242 28
10594 13241 13243 28
10595 13241 13244 28
10596 13241 13245 28
10597 13246 13247 28
10598 13246 13248 28
10599 13246 13249 28
10600 13246 13250 28
10601 13251 13252 28
10602 13251 13253 28
10603 13251 13254 28
10604 13251 13255 28
10605 13256 13257 28
10606 13256 13258 28
10607 13256 13259 28
10608 13256 13260 28
10609 13261 13262 28
10610 13261 13263 28
10611 13261 13264 28
10612 13261 13265 28
10613 13266 13267 28
10614 13266 13268 28
10615 13266 13269 28
10616 13266 13270 28
10617 13271 13272 28
10618 13271 13273 28
10619 13271 13274 28
10620 13271 13275 28
10621 13276 13277 28
10622 13276 13278 28
10623 13276 13279 28
10624 13276 13280 28
10625 13281 13282 28
10626 13281 13283 28
10627 13281 13284 28
10628 13281 13285 28
10629 13286 13287 28
10630 13286 13288 28
10631 13286 13289 28
10632 13286 13290 28
10633 13291 13292 28
10634 13291 13293 28
10635 13291 13294 28
10636 13291 13295 28
10637 13296 13297 28
10638 13296 13298 28
10639 13296 13299 28
10640 13296 13300 28
10641 13301 13302 28
10642 13301 13303 28
10643 13301 13304 28
10644 13301 13305 28
10645 13306 13307 28
10646 13306 13308 28
10647 13306 13309 28
10648 13306 13310 28
10649 13311 13312 28
10650 13311 13313 28
10651 13311 13314 28
10652 13311 13315 28
10653 13316 13317 28
10654 13316 13318 28
10655 13316 13319 28
10656 13316 13320 28
10657 13321 13322 28
10658 13321 13323 28
10659 13321 13324 28
10660 13321 13325 28
10661 13326 13327 28
10662 13326 13328 28
10663 13326 13329 28
10664 13326 13330 28
10665 13331 13332 28
10666 13331 13333 28
10667 13331 13334 28
10668 13331 13335 28
10669 13336 13337 28
10670 13336 13338 28
10671 13336 13339 28
10672 13336 13340 28
10673 13341 13342 28
10674 13341 13343 28
10675 13341 13344 28
10676 13341 13345 28
10677 13346 13347 28
10678 13346 13348 28
10679 13346 13349 28
10680 13346 13350 28
10681 13351 13352 28
10682 13351 13353 28
10683 13351 13354 28
10684 13351 13355 28
10685 13356 13357 28
10686 13356 13358 28
10687 13356 13359 28
10688 13356 13360 28
10689 13361 13362 28
10690 13361 13363 28
10691 13361 13364 28
10692 13361 13365 28
10693 13366 13367 28
10694 13366 13368 28
10695 13366 13369 28
10696 13366 13370 28
10697 13371 13372 28
10698 13371 13373 28
10699 13371 13374 28
10700 13371 13375 28
10701 13376 13377 28
10702 13376 13378 28
10703 13376 13379 28
10704 13376 13380 28
10705 13381 13382 28
10706 13381 13383 28
10707 13381 13384 28
10708 13381 13385 28
10709 13386 13387 28
10710 13386 13388 28
10711 13386 13389 28
10712 13386 13390 28
10713 13391 13392 28
10714 13391 13393 28
10715 13391 13394 28
10716 13391 13395 28
10717 13396 13397 28
10718 13396 13398 28
10719 13396 13399 28
10720 13396 13400 28
10721 13401 13402 28
10722 13401 13403 28
10723 13401 13404 28
10724 13401 13405 28
10725 13406 13407 28
10726 13406 13408 28
10727 13406 13409 28
10728 13406 13410 28
10729 13411 13412 28
10730 13411 13413 28
10731 13411 13414 28
10732 13411 13415 28
10733 13416 13417 28
10734 13416 13418 28
10735 13416 13419 28
10736 13416 13420 28
10737 13421 13422 28
10738 13421 13423 28
10739 13421 13424 28
10740 13421 13425 28
10741 13426 13427 28
10742 13426 13428 28
10743 13426 13429 28
10744 13426 13430 28
10745 13431 13432 28
10746 13431 13433 28
10747 13431 13434 28
10748 13431 13435 28
10749 13436 13437 28
10750 13436 13438 28
10751 13436 13439 28
10752 13436 13440 28
10753 13441 13442 28
10754 13441 13443 28
10755 13441 13444 28
10756 13441 13445 28
10757 13446 13447 28
10758 13446 13448 28
10759 13446 13449 28
10760 13446 13450 28
10761 13451 13452 28
10762 13451 13453 28
10763 13451 13454 28
10764 13451 13455 28
10765 13456 13457 28
10766 13456 13458 28
10767 13456 13459 28
10768 13456 13460 28
10769 13461 13462 28
10770 13461 13463 28
10771 13461 13464 28
10772 13461 13465 28
10773 13466 13467 28
10774 13466 13468 28
10775 13466 13469 28
10776 13466 13470 28
10777 13471 13472 28
10778 13471 13473 28
10779 13471 13474 28
10780 13471 13475 28
10781 13476 13477 28
10782 13476 13478 28
10783 13476 13479 28
10784 13476 13480 28
10785 13481 13482 28
10786 13481 13483 28
10787 13481 13484 28
10788 13481 13485 28
10789 13486 13487 28
10790 13486 13488 28
10791 13486 13489 28
10792 13486 13490 28
10793 13491 13492 28
10794 13491 13493 28
10795 13491 13494 28
10796 13491 13495 28
10797 13496 13497 28
10798 13496 13498 28
10799 13496 13499 28
10800 13496 13500 28
10801 13501 13502 28
10802 13501 13503 28
10803 13501 13504 28
10804 13501 13505 28
10805 13506 13507 28
10806 13506 13508 28
10807 13506 13509 28
10808 13506 13510 28
10809 13511 13512 28
10810 13511 13513 28
10811 13511 13514 28
10812 13511 13515 28
10813 13516 13517 28
10814 13516 13518 28
10815 13516 13519 28
10816 13516 13520 28
10817 13521 13522 28
10818 13521 13523 28
10819 13521 13524 28
10820 13521 13525 28
10821 13526 13527 28
10822 13526 13528 28
10823 13526 13529 28
10824 13526 13530 28
10825 13531 13532 28
10826 13531 13533 28
10827 13531 13534 28
10828 13531 13535 28
10829 13536 13537 28
10830 13536 13538 28
10831 13536 13539 28
10832 13536 13540 28
10833 13541 13542 28
10834 13541 13543 28
10835 13541 13544 28
10836 13541 13545 28
10837 13546 13547 28
10838 13546 13548 28
10839 13546 13549 28
10840 13546 13550 28
10841 13551 13552 28
10842 13551 13553 28
10843 13551 13554 28
10844 13551 13555 28
10845 13556 13557 28
10846 13556 13558 28
10847 13556 13559 28
10848 13556 13560 28
10849 13561 13562 28
10850 13561 13563 28
10851 13561 13564 28
10852 13561 13565 28
10853 13566 13567 28
10854 13566 13568 28
10855 13566 13569 28
10856 13566 13570 28
10857 13571 13572 28
10858 13571 13573 28
10859 13571 13574 28
10860 13571 13575 28
10861 13576 13577 28
10862 13576 13578 28
10863 13576 13579 28
10864 13576 13580 28
10865 13581 13582 28
10866 13581 13583 28
10867 13581 13584 28
10868 13581 13585 28
10869 13586 13587 28
10870 13586 13588 28
10871 13586 13589 28
10872 13586 13590 28
10873 13591 13592 28
10874 13591 13593 28
10875 13591 13594 28
10876 13591 13595 28
10877 13596 13597 28
10878 13596 13598 28
10879 13596 13599 28
10880 13596 13600 28
10881 13601 13602 28
10882 13601 13603 28
10883 13601 13604 28
10884 13601 13605 28
10885 13606 13607 28
10886 13606 13608 28
10887 13606 13609 28
10888 13606 13610 28
10889 13611 13612 28
10890 13611 13613 28
10891 13611 13614 28
10892 13611 13615 28
10893 13616 13617 28
10894 13616 13618 28
10895 13616 13619 28
10896 13616 13620 28
10897 13621 13622 28
10898 13621 13623 28
10899 13621 13624 28
10900 13621 13625 28
10901 13626 13627 28
10902 13626 13628 28
10903 13626 13629 28
10904 13626 13630 28
10905 13631 13632 28
10906 13631 13633 28
10907 13631 13634 28
10908 13631 13635 28
10909 13636 13637 28
10910 13636 13638 28
10911 13636 13639 28
10912 13636 13640 28
10913 13641 13642 28
10914 13641 13643 28
10915 13641 13644 28
10916 13641 13645 28
10917 13646 13647 28
10918 13646 13648 28
10919 13646 13649 28
10920 13646 13650 28
10921 13651 13652 28
10922 13651 13653 28
10923 13651 13654 28
10924 13651 13655 28
10925 13656 13657 28
10926 13656 13658 28
10927 13656 13659 28
10928 13656 13660 28
10929 13661 13662 28
10930 13661 13663 28
10931 13661 13664 28
10932 13661 13665 28
10933 13666 13667 28
10934 13666 13668 28
10935 13666 13669 28
10936 13666 13670 28
10937 13671 13672 28
10938 13671 13673 28
10939 13671 13674 28
10940 13671 13675 28
10941 13676 13677 28
10942 13676 13678 28
10943 13676 13679 28
10944 13676 13680 28
10945 13681 13682 28
10946 13681 13683 28
10947 13681 13684 28
10948 13681 13685 28
10949 13686 13687 28
10950 13686 13688 28
10951 13686 13689 28
10952 13686 13690 28
10953 13691 13692 28
10954 13691 13693 28
10955 13691 13694 28
10956 13691 13695 28
10957 13696 13697 28
10958 13696 13698 28
10959 13696 13699 28
10960 13696 13700 28
10961 13701 13702 28
10962 13701 13703 28
10963 13701 13704 28
10964 13701 13705 28
10965 13706 13707 28
10966 13706 13708 28
10967 13706 13709 28
10968 13706 13710 28
10969 13711 13712 28
10970 13711 13713 28
10971 13711 13714 28
10972 13711 13715 28
10973 13716 13717 28
10974 13716 13718 28
10975 13716 13719 28
10976 13716 13720 28
10977 13721 13722 28
10978 13721 13723 28
10979 13721 13724 28
10980 13721 13725 28
10981 13726 13727 28
10982 13726 13728 28
10983 13726 13729 28
10984 13726 13730 28
10985 13731 13732 28
10986 13731 13733 28
10987 13731 13734 28
10988 13731 13735 28
10989 13736 13737 28
10990 13736 13738 28
10991 13736 13739 28
10992 13736 13740 28
10993 13741 13742 28
10994 13741 13743 28
10995 13741 13744 28
10996 13741 13745 28
10997 13746 13747 28
10998 13746 13748 28
10999 13746 13749 28
11000 13746 13750 28
11001 13751 13752 28
11002 13751 13753 28
11003 13751 13754 28
11004 13751 13755 28
11005 13756 13757 28
11006 13756 13758 28
11007 13756 13759 28
11008 13756 13760 28
11009 13761 13762 28
11010 13761 13763 28
11011 13761 13764 28
11012 13761 13765 28
11013 13766 13767 28
11014 13766 13768 28
11015 13766 13769 28
11016 13766 13770 28
11017 13771 13772 28
11018 13771 13773 28
11019 13771 13774 28
11020 13771 13775 28
11021 13776 13777 28
11022 13776 13778 28
11023 13776 13779 28
11024 13776 13780 28
11025 13781 13782 28
11026 13781 13783 28
11027 13781 13784 28
11028 13781 13785 28
11029 13786 13787 28
11030 13786 13788 28
11031 13786 13789 28
11032 13786 13790 28
11033 13791 13792 28
11034 13791 13793 28
11035 13791 13794 28
11036 13791 13795 28
11037 13796 13797 28
11038 13796 13798 28
11039 13796 13799 28
11040 13796 13800 28
11041 13801 13802 28
11042 13801 13803 28
11043 13801 13804 28
11044 13801 13805 28
11045 13806 13807 28
11046 13806 13808 28
11047 13806 13809 28
11048 13806 13810 28
11049 13811 13812 28
11050 13811 13813 28
11051 13811 13814 28
11052 13811 13815 28
11053 13816 13817 28
11054 13816 13818 28
11055 13816 13819 28
11056 13816 13820 28
11057 13821 13822 28
11058 13821 13823 28
11059 13821 13824 28
11060 13821 13825 28
11061 13826 13827 28
11062 13826 13828 28
11063 13826 13829 28
11064 13826 13830 28
11065 13831 13832 28
11066 13831 13833 28
11067 13831 13834 28
11068 13831 13835 28
11069 13836 13837 28
11070 13836 13838 28
11071 13836 13839 28
11072 13836 13840 28
11073 13841 13842 28
11074 13841 13843 28
11075 13841 13844 28
11076 13841 13845 28
11077 13846 13847 28
11078 13846 13848 28
11079 13846 13849 28
11080 13846 13850 28
11081 13851 13852 28
11082 13851 13853 28
11083 13851 13854 28
11084 13851 13855 28
11085 13856 13857 28
11086 13856 13858 28
11087 13856 13859 28
11088 13856 13860 28
11089 13861 13862 28
11090 13861 13863 28
11091 13861 13864 28
11092 13861 13865 28
11093 13866 13867 28
11094 13866 13868 28
11095 13866 13869 28
11096 13866 13870 28
11097 13871 13872 28
11098 13871 13873 28
11099 13871 13874 28
11100 13871 13875 28
11101 13876 13877 28
11102 13876 13878 28
11103 13876 13879 28
11104 13876 13880 28
11105 13881 13882 28
11106 13881 13883 28
11107 13881 13884 28
11108 13881 13885 28
11109 13886 13887 28
11110 13886 13888 28
11111 13886 13889 28
11112 13886 13890 28
11113 13891 13892 28
11114 13891 13893 28
11115 13891 13894 28
11116 13891 13895 28
11117 13896 13897 28
11118 13896 13898 28
11119 13896 13899 28
11120 13896 13900 28
11121 13901 13902 28
11122 13901 13903 28
11123 13901 13904 28
11124 13901 13905 28
11125 13906 13907 28
11126 13906 13908 28
11127 13906 13909 28
11128 13906 13910 28
11129 13911 13912 28
11130 13911 13913 28
11131 13911 13914 28
11132 13911 13915 28
11133 13916 13917 28
11134 13916 13918 28
11135 13916 13919 28
11136 13916 13920 28
11137 13921 13922 28
11138 13921 13923 28
11139 13921 13924 28
11140 13921 13925 28
11141 13926 13927 28
11142 13926 13928 28
11143 13926 13929 28
11144 13926 13930 28
11145 13931 13932 28
11146 13931 13933 28
11147 13931 13934 28
11148 13931 13935 28
11149 13936 13937 28
11150 13936 13938 28
11151 13936 13939 28
11152 13936 13940 28
11153 13941 13942 28
11154 13941 13943 28
11155 13941 13944 28
11156 13941 13945 28
11157 13946 13947 28
11158 13946 13948 28
11159 13946 13949 28
11160 13946 13950 28
11161 13951 13952 28
11162 13951 13953 28
11163 13951 13954 28
11164 13951 13955 28
11165 13956 13957 28
11166 13956 13958 28
11167 13956 13959 28
11168 13956 13960 28
11169 13961 13962 28
11170 13961 13963 28
11171 13961 13964 28
11172 13961 13965 28
11173 13966 13967 28
11174 13966 13968 28
11175 13966 13969 28
11176 13966 13970 28
11177 13971 13972 28
11178 13971 13973 28
11179 13971 13974 28
11180 13971 13975 28
11181 13976 13977 28
11182 13976 13978 28
11183 13976 13979 28
11184 13976 13980 28
11185 13981 13982 28
11186 13981 13983 28
11187 13981 13984 28
11188 13981 13985 28
11189 13986 13987 28
11190 13986 13988 28
11191 13986 13989 28
11192 13986 13990 28
11193 13991 13992 28
11194 13991 13993 28
11195 13991 13994 28
11196 13991 13995 28
11197 13996 13997 28
11198 13996 13998 28
11199 13996 13999 28
11200 13996 14000 28
11201 14001 14002 28
11202 14001 14003 28
11203 14001 14004 28
11204 14001 14005 28
11205 14006 14007 28
11206 14006 14008 28
11207 14006 14009 28
11208 14006 14010 28
11209 14011 14012 28
11210 14011 14013 28
11211 14011 14014 28
11212 14011 14015 28
11213 14016 14017 28
11214 14016 14018 28
11215 14016 14019 28
11216 14016 14020 28
11217 14021 14022 28
11218 14021 14023 28
11219 14021 14024 28
11220 14021 14025 28
11221 14026 14027 28
11222 14026 14028 28
11223 14026 14029 28
11224 14026 14030 28
11225 14031 14032 28
11226 14031 14033 28
11227 14031 14034 28
11228 14031 14035 28
11229 14036 14037 28
11230 14036 14038 28
11231 14036 14039 28
11232 14036 14040 28
11233 14041 14042 28
11234 14041 14043 28
11235 14041 14044 28
11236 14041 14045 28
11237 14046 14047 28
11238 14046 14048 28
11239 14046 14049 28
11240 14046 14050 28
11241 14051 14052 28
11242 14051 14053 28
11243 14051 14054 28
11244 14051 14055 28
11245 14056 14057 28
11246 14056 14058 28
11247 14056 14059 28
11248 14056 14060 28
11249 14061 14062 28
11250 14061 14063 28
11251 14061 14064 28
11252 14061 14065 28
11253 14066 14067 28
11254 14066 14068 28
11255 14066 14069 28
11256 14066 14070 28
11257 14071 14072 28
11258 14071 14073 28
11259 14071 14074 28
11260 14071 14075 28
11261 14076 14077 28
11262 14076 14078 28
11263 14076 14079 28
11264 14076 14080 28
11265 14081 14082 28
11266 14081 14083 28
11267 14081 14084 28
11268 14081 14085 28
11269 14086 14087 28
11270 14086 14088 28
11271 14086 14089 28
11272 14086 14090 28
11273 14091 14092 28
11274 14091 14093 28
11275 14091 14094 28
11276 14091 14095 28
11277 14096 14097 28
11278 14096 14098 28
11279 14096 14099 28
11280 14096 14100 28
11281 14101 14102 28
11282 14101 14103 28
11283 14101 14104 28
11284 14101 14105 28
11285 14106 14107 28
11286 14106 14108 28
11287 14106 14109 28
11288 14106 14110 28
11289 14111 14112 28
11290 14111 14113 28
11291 14111 14114 28
11292 14111 14115 28
11293 14116 14117 28
11294 14116 14118 28
11295 14116 14119 28
11296 14116 14120 28
11297 14121 14122 28
11298 14121 14123 28
11299 14121 14124 28
11300 14121 14125 28
11301 14126 14127 28
11302 14126 14128 28
11303 14126 14129 28
11304 14126 14130 28
11305 14131 14132 28
11306 14131 14133 28
11307 14131 14134 28
11308 14131 14135 28
11309 14136 14137 28
11310 14136 14138 28
11311 14136 14139 28
11312 14136 14140 28
11313 14141 14142 28
11314 14141 14143 28
11315 14141 14144 28
11316 14141 14145 28
11317 14146 14147 28
11318 14146 14148 28
11319 14146 14149 28
11320 14146 14150 28
11321 14151 14152 28
11322 14151 14153 28
11323 14151 14154 28
11324 14151 14155 28
11325 14156 14157 28
11326 14156 14158 28
11327 14156 14159 28
11328 14156 14160 28
11329 14161 14162 28
11330 14161 14163 28
11331 14161 14164 28
11332 14161 14165 28
11333 14166 14167 28
11334 14166 14168 28
11335 14166 14169 28
11336 14166 14170 28
11337 14171 14172 28
11338 14171 14173 28
11339 14171 14174 28
11340 14171 14175 28
11341 14176 14177 28
11342 14176 14178 28
11343 14176 14179 28
11344 14176 14180 28
11345 14181 14182 28
11346 14181 14183 28
11347 14181 14184 28
11348 14181 14185 28
11349 14186 14187 28
11350 14186 14188 28
11351 14186 14189 28
11352 14186 14190 28
11353 14191 14192 28
11354 14191 14193 28
11355 14191 14194 28
11356 14191 14195 28
11357 14196 14197 28
11358 14196 14198 28
11359 14196 14199 28
11360 14196 14200 28
11361 14201 14202 28
11362 14201 14203 28
11363 14201 14204 28
11364 14201 14205 28
11365 14206 14207 28
11366 14206 14208 28
11367 14206 14209 28
11368 14206 14210 28
11369 14211 14212 28
11370 14211 14213 28
11371 14211 14214 28
11372 14211 14215 28
11373 14216 14217 28
11374 14216 14218 28
11375 14216 14219 28
11376 14216 14220 28
11377 14221 14222 28
11378 14221 14223 28
11379 14221 14224 28
11380 14221 14225 28
11381 14226 14227 28
11382 14226 14228 28
11383 14226 14229 28
11384 14226 14230 28
11385 14231 14232 28
11386 14231 14233 28
11387 14231 14234 28
11388 14231 14235 28
11389 14236 14237 28
11390 14236 14238 28
11391 14236 14239 28
11392 14236 14240 28
11393 14241 14242 28
11394 14241 14243 28
11395 14241 14244 28
11396 14241 14245 28
11397 14246 14247 28
11398 14246 14248 28
11399 14246 14249 28
11400 14246 14250 28
11401 14251 14252 28
11402 14251 14253 28
11403 14251 14254 28
11404 14251 14255 28
11405 14256 14257 28
11406 14256 14258 28
11407 14256 14259 28
11408 14256 14260 28
11409 14261 14262 28
11410 14261 14263 28
11411 14261 14264 28
11412 14261 14265 28
11413 14266 14267 28
11414 14266 14268 28
11415 14266 14269 28
11416 14266 14270 28
11417 14271 14272 28
11418 14271 14273 28
11419 14271 14274 28
11420 14271 14275 28
11421 14276 14277 28
11422 14276 14278 28
11423 14276 14279 28
11424 14276 14280 28
11425 14281 14282 28
11426 14281 14283 28
11427 14281 14284 28
11428 14281 14285 28
11429 14286 14287 28
11430 14286 14288 28
11431 14286 14289 28
11432 14286 14290 28
11433 14291 14292 28
11434 14291 14293 28
11435 14291 14294 28
11436 14291 14295 28
11437 14296 14297 28
11438 14296 14298 28
11439 14296 14299 28
11440 14296 14300 28
11441 14301 14302 28
11442 14301 14303 28
11443 14301 14304 28
11444 14301 14305 28
11445 14306 14307 28
11446 14306 14308 28
11447 14306 14309 28
11448 14306 14310 28
11449 14311 14312 28
11450 14311 14313 28
11451 14311 14314 28
11452 14311 14315 28
11453 14316 14317 28
11454 14316 14318 28
11455 14316 14319 28
11456 14316 14320 28
11457 14321 14322 28
11458 14321 14323 28
11459 14321 14324 28
11460 14321 14325 28
11461 14326 14327 28
11462 14326 14328 28
11463 14326 14329 28
11464 14326 14330 28
11465 14331 14332 28
11466 14331 14333 28
11467 14331 14334 28
11468 14331 14335 28
11469 14336 14337 28
11470 14336 14338 28
11471 14336 14339 28
11472 14336 14340 28
11473 14341 14342 28
11474 14341 14343 28
11475 14341 14344 28
11476 14341 14345 28
11477 14346 14347 28
11478 14346 14348 28
11479 14346 14349 28
11480 14346 14350 28
11481 14351 14352 28
11482 14351 14353 28
11483 14351 14354 28
11484 14351 14355 28
11485 14356 14357 28
11486 14356 14358 28
11487 14356 14359 28
11488 14356 14360 28
11489 14361 14362 28
11490 14361 14363 28
11491 14361 14364 28
11492 14361 14365 28
11493 14366 14367 28
11494 14366 14368 28
11495 14366 14369 28
11496 14366 14370 28
11497 14371 14372 28
11498 14371 14373 28
11499 14371 14374 28
11500 14371 14375 28
11501 14376 14377 28
11502 14376 14378 28
11503 14376 14379 28
11504 14376 14380 28
11505 14381 14382 28
11506 14381 14383 28
11507 14381 14384 28
11508 14381 14385 28
11509 14386 14387 28
11510 14386 14388 28
11511 14386 14389 28
11512 14386 14390 28
11513 14391 14392 28
11514 14391 14393 28
11515 14391 14394 28
11516 14391 14395 28
11517 14396 14397 28
11518 14396 14398 28
11519 14396 14399 28
11520 14396 14400 28
11521 14401 14402 28
11522 14401 14403 28
11523 14401 14404 28
11524 14401 14405 28
11525 14406 14407 28
11526 14406 14408 28
11527 14406 14409 28
11528 14406 14410 28
11529 14411 14412 28
11530 14411 14413 28
11531 14411 14414 28
11532 14411 14415 28
11533 14416 14417 28
11534 14416 14418 28
11535 14416 14419 28
11536 14416 14420 28
11537 14421 14422 28
11538 14421 14423 28
11539 14421 14424 28
11540 14421 14425 28
11541 14426 14427 28
11542 14426 14428 28
11543 14426 14429 28
11544 14426 14430 28
11545 14431 14432 28
11546 14431 14433 28
11547 14431 14434 28
11548 14431 14435 28
11549 14436 14437 28
11550 14436 14438 28
11551 14436 14439 28
11552 14436 14440 28
11553 14441 14442 28
11554 14441 14443 28
11555 14441 14444 28
11556 14441 14445 28
11557 14446 14447 28
11558 14446 14448 28
11559 14446 14449 28
11560 14446 14450 28
11561 14451 14452 28
11562 14451 14453 28
11563 14451 14454 28
11564 14451 14455 28
11565 14456 14457 28
11566 14456 14458 28
11567 14456 14459 28
11568 14456 14460 28
11569 14461 14462 28
11570 14461 14463 28
11571 14461 14464 28
11572 14461 14465 28
11573 14466 14467 28
11574 14466 14468 28
11575 14466 14469 28
11576 14466 14470 28
11577 14471 14472 28
11578 14471 14473 28
11579 14471 14474 28
11580 14471 14475 28
11581 14476 14477 28
11582 14476 14478 28
11583 14476 14479 28
11584 14476 14480 28
11585 14481 14482 28
11586 14481 14483 28
11587 14481 14484 28
11588 14481 14485 28
11589 14486 14487 28
11590 14486 14488 28
11591 14486 14489 28
11592 14486 14490 28
11593 14491 14492 28
11594 14491 14493 28
11595 14491 14494 28
11596 14491 14495 28
11597 14496 14497 28
11598 14496 14498 28
11599 14496 14499 28
11600 14496 14500 28
11601 14501 14502 28
11602 14501 14503 28
11603 14501 14504 28
11604 14501 14505 28
11605 14506 14507 28
11606 14506 14508 28
11607 14506 14509 28
11608 14506 14510 28
11609 14511 14512 28
11610 14511 14513 28
11611 14511 14514 28
11612 14511 14515 28
11613 14516 14517 28
11614 14516 14518 28
11615 14516 14519 28
11616 14516 14520 28
11617 14521 14522 28
11618 14521 14523 28
11619 14521 14524 28
11620 14521 14525 28
11621 14526 14527 28
11622 14526 14528 28
11623 14526 14529 28
11624 14526 14530 28
11625 14531 14532 28
11626 14531 14533 28
11627 14531 14534 28
11628 14531 14535 28
11629 14536 14537 28
11630 14536 14538 28
11631 14536 14539 28
11632 14536 14540 28
11633 14541 14542 28
11634 14541 14543 28
11635 14541 14544 28
11636 14541 14545 28
11637 14546 14547 28
11638 14546 14548 28
11639 14546 14549 28
11640 14546 14550 28
11641 14551 14552 28
11642 14551 14553 28
11643 14551 14554 28
11644 14551 14555 28
11645 14556 14557 28
11646 14556 14558 28
11647 14556 14559 28
11648 14556 14560 28
11649 14561 14562 28
11650 14561 14563 28
11651 14561 14564 28
11652 14561 14565 28
11653 14566 14567 28
11654 14566 14568 28
11655 14566 14569 28
11656 14566 14570 28
11657 14571 14572 28
11658 14571 14573 28
11659 14571 14574 28
11660 14571 14575 28
11661 14576 14577 28
11662 14576 14578 28
11663 14576 14579 28
11664 14576 14580 28
11665 14581 14582 28
11666 14581 14583 28
11667 14581 14584 28
11668 14581 14585 28
11669 14586 14587 28
11670 14586 14588 28
11671 14586 14589 28
11672 14586 14590 28
11673 14591 14592 28
11674 14591 14593 28
11675 14591 14594 28
11676 14591 14595 28
11677 14596 14597 28
11678 14596 14598 28
11679 14596 14599 28
11680 14596 14600 28
11681 14601 14602 28
11682 14601 14603 28
11683 14601 14604 28
11684 14601 14605 28
11685 14606 14607 28
11686 14606 14608 28
11687 14606 14609 28
11688 14606 14610 28
11689 14611 14612 28
11690 14611 14613 28
11691 14611 14614 28
11692 14611 14615 28
11693 14616 14617 28
11694 14616 14618 28
11695 14616 14619 28
11696 14616 14620 28
11697 14621 14622 28
11698 14621 14623 28
11699 14621 14624 28
11700 14621 14625 28
11701 14626 14627 28
11702 14626 14628 28
11703 14626 14629 28
11704 14626 14630 28
11705 14631 14632 28
11706 14631 14633 28
11707 14631 14634 28
11708 14631 14635 28
11709 14636 14637 28
11710 14636 14638 28
11711 14636 14639 28
11712 14636 14640 28
11713 14641 14642 28
11714 14641 14643 28
11715 14641 14644 28
11716 14641 14645 28
11717 14646 14647 28
11718 14646 14648 28
11719 14646 14649 28
11720 14646 14650 28
11721 14651 14652 28
11722 14651 14653 28
11723 14651 14654 28
11724 14651 14655 28
11725 14656 14657 28
11726 14656 14658 28
11727 14656 14659 28
11728 14656 14660 28
11729 14661 14662 28
11730 14661 14663 28
11731 14661 14664 28
11732 14661 14665 28
11733 14666 14667 28
11734 14666 14668 28
11735 14666 14669 28
11736 14666 14670 28
11737 14671 14672 28
11738 14671 14673 28
11739 14671 14674 28
11740 14671 14675 28
11741 14676 14677 28
11742 14676 14678 28
11743 14676 14679 28
11744 14676 14680 28
11745 14681 14682 28
11746 14681 14683 28
11747 14681 14684 28
11748 14681 14685 28
11749 14686 14687 28
11750 14686 14688 28
11751 14686 14689 28
11752 14686 14690 28
11753 14691 14692 28
11754 14691 14693 28
11755 14691 14694 28
11756 14691 14695 28
11757 14696 14697 28
11758 14696 14698 28
11759 14696 14699 28
11760 14696 14700 28
11761 14701 14702 28
11762 14701 14703 28
11763 14701 14704 28
11764 14701 14705 28
11765 14706 14707 28
11766 14706 14708 28
11767 14706 14709 28
11768 14706 14710 28
11769 14711 14712 28
11770 14711 14713 28
11771 14711 14714 28
11772 14711 14715 28
11773 14716 14717 28
11774 14716 14718 28
11775 14716 14719 28
11776 14716 14720 28
11777 14721 14722 28
11778 14721 14723 28
11779 14721 14724 28
11780 14721 14725 28
11781 14726 14727 28
11782 14726 14728 28
11783 14726 14729 28
11784 14726 14730 28
11785 14731 14732 28
11786 14731 14733 28
11787 14731 14734 28
11788 14731 14735 28
11789 14736 14737 28
11790 14736 14738 28
11791 14736 14739 28
11792 14736 14740 28
11793 14741 14742 28
11794 14741 14743 28
11795 14741 14744 28
11796 14741 14745 28
11797 14746 14747 28
11798 14746 14748 28
11799 14746 14749 28
11800 14746 14750 28
11801 14751 14752 28
11802 14751 14753 28
11803 14751 14754 28
11804 14751 14755 28
11805 14756 14757 28
11806 14756 14758 28
11807 14756 14759 28
11808 14756 14760 28
11809 14761 14762 28
11810 14761 14763 28
11811 14761 14764 28
11812 14761 14765 28
11813 14766 14767 28
11814 14766 14768 28
11815 14766 14769 28
11816 14766 14770 28
11817 14771 14772 28
11818 14771 14773 28
11819 14771 14774 28
11820 14771 14775 28
11821 14776 14777 28
11822 14776 14778 28
11823 14776 14779 28
11824 14776 14780 28
11825 14781 14782 28
11826 14781 14783 28
11827 14781 14784 28
11828 14781 14785 28
11829 14786 14787 28
11830 14786 14788 28
11831 14786 14789 28
11832 14786 14790 28
11833 14791 14792 28
11834 14791 14793 28
11835 14791 14794 28
11836 14791 14795 28
11837 14796 14797 28
11838 14796 14798 28
11839 14796 14799 28
11840 14796 14800 28
11841 14801 14802 28
11842 14801 14803 28
11843 14801 14804 28
11844 14801 14805 28
11845 14806 14807 28
11846 14806 14808 28
11847 14806 14809 28
11848 14806 14810 28
11849 14811 14812 28
11850 14811 14813 28
11851 14811 14814 28
11852 14811 14815 28
11853 14816 14817 28
11854 14816 14818 28
11855 14816 14819 28
11856 14816 14820 28
11857 14821 14822 28
11858 14821 14823 28
11859 14821 14824 28
11860 14821 14825 28
11861 14826 14827 28
11862 14826 14828 28
11863 14826 14829 28
11864 14826 14830 28
11865 14831 14832 28
11866 14831 14833 28
11867 14831 14834 28
11868 14831 14835 28
11869 14836 14837 28
11870 14836 14838 28
11871 14836 14839 28
11872 14836 14840 28
11873 14841 14842 28
11874 14841 14843 28
11875 14841 14844 28
11876 14841 14845 28
11877 14846 14847 28
11878 14846 14848 28
11879 14846 14849 28
11880 14846 14850 28
11881 14851 14852 28
11882 14851 14853 28
11883 14851 14854 28
11884 14851 14855 28
11885 14856 14857 28
11886 14856 14858 28
11887 14856 14859 28
11888 14856 14860 28
11889 14861 14862 28
11890 14861 14863 28
11891 14861 14864 28
11892 14861 14865 28
11893 14866 14867 28
11894 14866 14868 28
11895 14866 14869 28
11896 14866 14870 28
11897 14871 14872 28
11898 14871 14873 28
11899 14871 14874 28
11900 14871 14875 28
11901 14876 14877 28
11902 14876 14878 28
11903 14876 14879 28
11904 14876 14880 28
11905 14881 14882 28
11906 14881 14883 28
11907 14881 14884 28
11908 14881 14885 28
11909 14886 14887 28
11910 14886 14888 28
11911 14886 14889 28
11912 14886 14890 28
11913 14891 14892 28
11914 14891 14893 28
11915 14891 14894 28
11916 14891 14895 28
11917 14896 14897 28
11918 14896 14898 28
11919 14896 14899 28
11920 14896 14900 28
11921 14901 14902 28
11922 14901 14903 28
11923 14901 14904 28
11924 14901 14905 28
11925 14906 14907 28
11926 14906 14908 28
11927 14906 14909 28
11928 14906 14910 28
11929 14911 14912 28
11930 14911 14913 28
11931 14911 14914 28
11932 14911 14915 28
11933 14916 14917 28
11934 14916 14918 28
11935 14916 14919 28
11936 14916 14920 28
11937 14921 14922 28
11938 14921 14923 28
11939 14921 14924 28
11940 14921 14925 28
11941 14926 14927 28
11942 14926 14928 28
11943 14926 14929 28
11944 14926 14930 28
11945 14931 14932 28
11946 14931 14933 28
11947 14931 14934 28
11948 14931 14935 28
11949 14936 14937 28
11950 14936 14938 28
11951 14936 14939 28
11952 14936 14940 28
11953 14941 14942 28
11954 14941 14943 28
11955 14941 14944 28
11956 14941 14945 28
11957 14946 14947 28
11958 14946 14948 28
11959 14946 14949 28
11960 14946 14950 28
11961 14951 14952 28
11962 14951 14953 28
11963 14951 14954 28
11964 14951 14955 28
11965 14956 14957 28
11966 14956 14958 28
11967 14956 14959 28
11968 14956 14960 28
11969 14961 14962 28
11970 14961 14963 28
11971 14961 14964 28
11972 14961 14965 28
11973 14966 14967 28
11974 14966 14968 28
11975 14966 14969 28
11976 14966 14970 28
11977 14971 14972 28
11978 14971 14973 28
11979 14971 14974 28
11980 14971 14975 28
11981 14976 14977 28
11982 14976 14978 28
11983 14976 14979 28
11984 14976 14980 28
11985 14981 14982 28
11986 14981 14983 28
11987 14981 14984 28
11988 14981 14985 28
11989 14986 14987 28
11990 14986 14988 28
11991 14986 14989 28
11992 14986 14990 28
11993 14991 14992 28
11994 14991 14993 28
11995 14991 14994 28
11996 14991 14995 28
11997 14996 14997 28
11998 14996 14998 28
11999 14996 14999 28
12000 14996 15000 28
12001 15001 15002 28
12002 15001 15003 28
12003 15001 15004 28
12004 15001 15005 28
12005 15006 15007 28
12006 15006 15008 28
12007 15006 15009 28
12008 15006 15010 28
12009 15011 15012 28
12010 15011 15013 28
12011 15011 15014 28
12012 15011 15015 28
12013 15016 15017 28
12014 15016 15018 28
12015 15016 15019 28
12016 15016 15020 28
12017 15021 15022 28
12018 15021 15023 28
12019 15021 15024 28
12020 15021 15025 28
12021 15026 15027 28
12022 15026 15028 28
12023 15026 15029 28
12024 15026 15030 28
12025 15031 15032 28
12026 15031 15033 28
12027 15031 15034 28
12028 15031 15035 28
12029 15036 15037 28
12030 15036 15038 28
12031 15036 15039 28
12032 15036 15040 28
12033 15041 15042 28
12034 15041 15043 28
12035 15041 15044 28
12036 15041 15045 28
12037 15046 15047 28
12038 15046 15048 28
12039 15046 15049 28
12040 15046 15050 28
12041 15051 15052 28
12042 15051 15053 28
12043 15051 15054 28
12044 15051 15055 28
12045 15056 15057 28
12046 15056 15058 28
12047 15056 15059 28
12048 15056 15060 28
12049 15061 15062 28
12050 15061 15063 28
12051 15061 15064 28
12052 15061 15065 28
12053 15066 15067 28
12054 15066 15068 28
12055 15066 15069 28
12056 15066 15070 28
12057 15071 15072 28
12058 15071 15073 28
12059 15071 15074 28
12060 15071 15075 28
12061 15076 15077 28
12062 15076 15078 28
12063 15076 15079 28
12064 15076 15080 28
12065 15081 15082 28
12066 15081 15083 28
12067 15081 15084 28
12068 15081 15085 28
12069 15086 15087 28
12070 15086 15088 28
12071 15086 15089 28
12072 15086 15090 28
12073 15091 15092 28
12074 15091 15093 28
12075 15091 15094 28
12076 15091 15095 28
12077 15096 15097 28
12078 15096 15098 28
12079 15096 15099 28
12080 15096 15100 28
12081 15101 15102 28
12082 15101 15103 28
12083 15101 15104 28
12084 15101 15105 28
12085 15106 15107 28
12086 15106 15108 28
12087 15106 15109 28
12088 15106 15110 28
12089 15111 15112 28
12090 15111 15113 28
12091 15111 15114 28
12092 15111 15115 28
12093 15116 15117 28
12094 15116 15118 28
12095 15116 15119 28
12096 15116 15120 28
12097 15121 15122 28
12098 15121 15123 28
12099 15121 15124 28
12100 15121 15125 28
12101 15126 15127 28
12102 15126 15128 28
12103 15126 15129 28
12104 15126 15130 28
12105 15131 15132 28
12106 15131 15133 28
12107 15131 15134 28
12108 15131 15135 28
12109 15136 15137 28
12110 15136 15138 28
12111 15136 15139 28
12112 15136 15140 28
12113 15141 15142 28
12114 15141 15143 28
12115 15141 15144 28
12116 15141 15145 28
12117 15146 15147 28
12118 15146 15148 28
12119 15146 15149 28
12120 15146 15150 28
12121 15151 15152 28
12122 15151 15153 28
12123 15151 15154 28
12124 15151 15155 28
12125 15156 15157 28
12126 15156 15158 28
12127 15156 15159 28
12128 15156 15160 28
12129 15161 15162 28
12130 15161 15163 28
12131 15161 15164 28
12132 15161 15165 28
12133 15166 15167 28
12134 15166 15168 28
12135 15166 15169 28
12136 15166 15170 28
12137 15171 15172 28
12138 15171 15173 28
12139 15171 15174 28
12140 15171 15175 28
12141 15176 15177 28
12142 15176 15178 28
12143 15176 15179 28
12144 15176 15180 28
12145 15181 15182 28
12146 15181 15183 28
12147 15181 15184 28
12148 15181 15185 28
12149 15186 15187 28
12150 15186 15188 28
12151 15186 15189 28
12152 15186 15190 28
12153 15191 15192 28
12154 15191 15193 28
12155 15191 15194 28
12156 15191 15195 28
12157 15196 15197 28
12158 15196 15198 28
12159 15196 15199 28
12160 15196 15200 28
12161 15201 15202 28
12162 15201 15203 28
12163 15201 15204 28
12164 15201 15205 28
12165 15206 15207 28
12166 15206 15208 28
12167 15206 15209 28
12168 15206 15210 28
12169 15211 15212 28
12170 15211 15213 28
12171 15211 15214 28
12172 15211 15215 28
12173 15216 15217 28
12174 15216 15218 28
12175 15216 15219 28
12176 15216 15220 28
12177 15221 15222 28
12178 15221 15223 28
12179 15221 15224 28
12180 15221 15225 28
12181 15226 15227 28
12182 15226 15228 28
12183 15226 15229 28
12184 15226 15230 28
12185 15231 15232 28
12186 15231 15233 28
12187 15231 15234 28
12188 15231 15235 28
12189 15236 15237 28
12190 15236 15238 28
12191 15236 15239 28
12192 15236 15240 28
12193 15241 15242 28
12194 15241 15243 28
12195 15241 15244 28
12196 15241 15245 28
12197 15246 15247 28
12198 15246 15248 28
12199 15246 15249 28
12200 15246 15250 28
12201 15251 15252 28
12202 15251 15253 28
12203 15251 15254 28
12204 15251 15255 28
12205 15256 15257 28
12206 15256 15258 28
12207 15256 15259 28
12208 15256 15260 28
12209 15261 15262 28
12210 15261 15263 28
12211 15261 15264 28
12212 15261 15265 28
12213 15266 15267 28
12214 15266 15268 28
12215 15266 15269 28
12216 15266 15270 28
12217 15271 15272 28
12218 15271 15273 28
12219 15271 15274 28
12220 15271 15275 28
12221 15276 15277 28
12222 15276 15278 28
12223 15276 15279 28
12224 15276 15280 28
12225 15281 15282 28
12226 15281 15283 28
12227 15281 15284 28
12228 15281 15285 28
12229 15286 15287 28
12230 15286 15288 28
12231 15286 15289 28
12232 15286 15290 28
12233 15291 15292 28
12234 15291 15293 28
12235 15291 15294 28
12236 15291 15295 28
12237 15296 15297 28
12238 15296 15298 28
12239 15296 15299 28
12240 15296 15300 28
12241 15301 15302 28
12242 15301 15303 28
12243 15301 15304 28
12244 15301 15305 28
12245 15306 15307 28
12246 15306 15308 28
12247 15306 15309 28
12248 15306 15310 28
12249 15311 15312 28
12250 15311 15313 28
12251 15311 15314 28
12252 15311 15315 28
12253 15316 15317 28
12254 15316 15318 28
12255 15316 15319 28
12256 15316 15320 28
12257 15321 15322 28
12258 15321 15323 28
12259 15321 15324 28
12260 15321 15325 28
12261 15326 15327 28
12262 15326 15328 28
12263 15326 15329 28
12264 15326 15330 28
12265 15331 15332 28
12266 15331 15333 28
12267 15331 15334 28
12268 15331 15335 28
12269 15336 15337 28
12270 15336 15338 28
12271 15336 15339 28
12272 15336 15340 28
12273 15341 15342 28
12274 15341 15343 28
12275 15341 15344 28
12276 15341 15345 28
12277 15346 15347 28
12278 15346 15348 28
12279 15346 15349 28
12280 15346 15350 28
12281 15351 15352 28
12282 15351 15353 28
12283 15351 15354 28
12284 15351 15355 28
12285 15356 15357 28
12286 15356 15358 28
12287 15356 15359 28
12288 15356 15360 28
12289 15361 15362 28
12290 15361 15363 28
12291 15361 15364 28
12292 15361 15365 28
12293 15366 15367 28
12294 15366 15368 28
12295 15366 15369 28
12296 15366 15370 28
12297 15371 15372 28
12298 15371 15373 28
12299 15371 15374 28
12300 15371 15375 28
12301 15376 15377 28
12302 15376 15378 28
12303 15376 15379 28
12304 15376 15380 28
12305 15381 15382 28
12306 15381 15383 28
12307 15381 15384 28
12308 15381 15385 28
12309 15386 15387 28
12310 15386 15388 28
12311 15386 15389 28
12312 15386 15390 28
12313 15391 15392 28
12314 15391 15393 28
12315 15391 15394 28
12316 15391 15395 28
12317 15396 15397 28
12318 15396 15398 28
12319 15396 15399 28
12320 15396 15400 28
12321 15401 15402 28
12322 15401 15403 28
12323 15401 15404 28
12324 15401 15405 28
12325 15406 15407 28
12326 15406 15408 28
12327 15406 15409 28
12328 15406 15410 28
12329 15411 15412 28
12330 15411 15413 28
12331 15411 15414 28
12332 15411 15415 28
12333 15416 15417 28
12334 15416 15418 28
12335 15416 15419 28
12336 15416 15420 28
12337 15421 15422 28
12338 15421 15423 28
12339 15421 15424 28
12340 15421 15425 28
12341 15426 15427 28
12342 15426 15428 28
12343 15426 15429 28
12344 15426 15430 28
12345 15431 15432 28
12346 15431 15433 28
12347 15431 15434 28
12348 15431 15435 28
12349 15436 15437 28
12350 15436 15438 28
12351 15436 15439 28
12352 15436 15440 28
12353 15441 15442 28
12354 15441 15443 28
12355 15441 15444 28
12356 15441 15445 28
12357 15446 15447 28
12358 15446 15448 28
12359 15446 15449 28
12360 15446 15450 28
12361 15451 15452 28
12362 15451 15453 28
12363 15451 15454 28
12364 15451 15455 28
12365 15456 15457 28
12366 15456 15458 28
12367 15456 15459 28
12368 15456 15460 28
12369 15461 15462 28
12370 15461 15463 28
12371 15461 15464 28
12372 15461 15465 28
12373 15466 15467 28
12374 15466 15468 28
12375 15466 15469 28
12376 15466 15470 28
12377 15471 15472 28
12378 15471 15473 28
12379 15471 15474 28
12380 15471 15475 28
12381 15476 15477 28
12382 15476 15478 28
12383 15476 15479 28
12384 15476 15480 28
12385 15481 15482 28
12386 15481 15483 28
12387 15481 15484 28
12388 15481 15485 28
12389 15486 15487 28
12390 15486 15488 28
12391 15486 15489 28
12392 15486 15490 28
12393 15491 15492 28
12394 15491 15493 28
12395 15491 15494 28
12396 15491 15495 28
12397 15496 15497 28
12398 15496 15498 28
12399 15496 15499 28
12400 15496 15500 28
12401 15501 15502 28
12402 15501 15503 28
12403 15501 15504 28
12404 15501 15505 28
12405 15506 15507 28
12406 15506 15508 28
12407 15506 15509 28
12408 15506 15510 28
12409 15511 15512 28
12410 15511 15513 28
12411 15511 15514 28
12412 15511 15515 28
12413 15516 15517 28
12414 15516 15518 28
12415 15516 15519 28
12416 15516 15520 28
12417 15521 15522 28
12418 15521 15523 28
12419 15521 15524 28
12420 15521 15525 28
12421 15526 15527 28
12422 15526 15528 28
12423 15526 15529 28
12424 15526 15530 28
12425 15531 15532 28
12426 15531 15533 28
12427 15531 15534 28
12428 15531 15535 28
12429 15536 15537 28
12430 15536 15538 28
12431 15536 15539 28
12432 15536 15540 28
12433 15541 15542 28
12434 15541 15543 28
12435 15541 15544 28
12436 15541 15545 28
12437 15546 15547 28
12438 15546 15548 28
12439 15546 15549 28
12440 15546 15550 28
12441 15551 15552 28
12442 15551 15553 28
12443 15551 15554 28
12444 15551 15555 28
12445 15556 15557 28
12446 15556 15558 28
12447 15556 15559 28
12448 15556 15560 28
12449 15561 15562 28
12450 15561 15563 28
12451 15561 15564 28
12452 15561 15565 28
12453 15566 15567 28
12454 15566 15568 28
12455 15566 15569 28
12456 15566 15570 28
12457 15571 15572 28
12458 15571 15573 28
12459 15571 15574 28
12460 15571 15575 28
12461 15576 15577 28
12462 15576 15578 28
12463 15576 15579 28
12464 15576 15580 28
12465 15581 15582 28
12466 15581 15583 28
12467 15581 15584 28
12468 15581 15585 28
12469 15586 15587 28
12470 15586 15588 28
12471 15586 15589 28
12472 15586 15590 28
12473 15591 15592 28
12474 15591 15593 28
12475 15591 15594 28
12476 15591 15595 28
12477 15596 15597 28
12478 15596 15598 28
12479 15596 15599 28
12480 15596 15600 28
12481 15601 15602 28
12482 15601 15603 28
12483 15601 15604 28
12484 15601 15605 28
12485 15606 15607 28
12486 15606 15608 28
12487 15606 15609 28
12488 15606 15610 28
12489 15611 15612 28
12490 15611 15613 28
12491 15611 15614 28
12492 15611 15615 28
12493 15616 15617 28
12494 15616 15618 28
12495 15616 15619 28
12496 15616 15620 28
12497 15621 15622 28
12498 15621 15623 28
12499 15621 15624 28
12500 15621 15625 28
12501 15626 15627 28
12502 15626 15628 28
12503 15626 15629 28
12504 15626 15630 28
12505 15631 15632 28
12506 15631 15633 28
12507 15631 15634 28
12508 15631 15635 28
12509 15636 15637 28
12510 15636 15638 28
12511 15636 15639 28
12512 15636 15640 28
12513 15641 15642 28
12514 15641 15643 28
12515 15641 15644 28
12516 15641 15645 28
12517 15646 15647 28
12518 15646 15648 28
12519 15646 15649 28
12520 15646 15650 28
12521 15651 15652 28
12522 15651 15653 28
12523 15651 15654 28
12524 15651 15655 28
12525 15656 15657 28
12526 15656 15658 28
12527 15656 15659 28
12528 15656 15660 28
12529 15661 15662 28
12530 15661 15663 28
12531 15661 15664 28
12532 15661 15665 28
12533 15666 15667 28
12534 15666 15668 28
12535 15666 15669 28
12536 15666 15670 28
12537 15671 15672 28
12538 15671 15673 28
12539 15671 15674 28
12540 15671 15675 28
12541 15676 15677 28
12542 15676 15678 28
12543 15676 15679 28
12544 15676 15680 28
12545 15681 15682 28
12546 15681 15683 28
12547 15681 15684 28
12548 15681 15685 28
12549 15686 15687 28
12550 15686 15688 28
12551 15686 15689 28
12552 15686 15690 28
12553 15691 15692 28
12554 15691 15693 28
12555 15691 15694 28
12556 15691 15695 28
12557 15696 15697 28
12558 15696 15698 28
12559 15696 15699 28
12560 15696 15700 28
12561 15701 15702 28
12562 15701 15703 28
12563 15701 15704 28
12564 15701 15705 28
12565 15706 15707 28
12566 15706 15708 28
12567 15706 15709 28
12568 15706 15710 28
12569 15711 15712 28
12570 15711 15713 28
12571 15711 15714 28
12572 15711 15715 28
12573 15716 15717 28
12574 15716 15718 28
12575 15716 15719 28
12576 15716 15720 28
12577 15721 15722 28
12578 15721 15723 28
12579 15721 15724 28
12580 15721 15725 28
12581 15726 15727 28
12582 15726 15728 28
12583 15726 15729 28
12584 15726 15730 28
12585 15731 15732 28
12586 15731 15733 28
12587 15731 15734 28
12588 15731 15735 28
12589 15736 15737 28
12590 15736 15738 28
12591 15736 15739 28
12592 15736 15740 28
12593 15741 15742 28
12594 15741 15743 28
12595 15741 15744 28
12596 15741 15745 28
12597 15746 15747 28
12598 15746 15748 28
12599 15746 15749 28
12600 15746 15750 28
12601 15751 15752 28
12602 15751 15753 28
12603 15751 15754 28
12604 15751 15755 28
12605 15756 15757 28
12606 15756 15758 28
12607 15756 15759 28
12608 15756 15760 28
12609 15761 15762 28
12610 15761 15763 28
12611 15761 15764 28
12612 15761 15765 28
12613 15766 15767 28
12614 15766 15768 28
12615 15766 15769 28
12616 15766 15770 28
12617 15771 15772 28
12618 15771 15773 28
12619 15771 15774 28
12620 15771 15775 28
12621 15776 15777 28
12622 15776 15778 28
12623 15776 15779 28
12624 15776 15780 28
12625 15781 15782 28
12626 15781 15783 28
12627 15781 15784 28
12628 15781 15785 28
12629 15786 15787 28
12630 15786 15788 28
12631 15786 15789 28
12632 15786 15790 28
12633 15791 15792 28
12634 15791 15793 28
12635 15791 15794 28
12636 15791 15795 28
12637 15796 15797 28
12638 15796 15798 28
12639 15796 15799 28
12640 15796 15800 28
12641 15801 15802 28
12642 15801 15803 28
12643 15801 15804 28
12644 15801 15805 28
12645 15806 15807 28
12646 15806 15808 28
12647 15806 15809 28
12648 15806 15810 28
12649 15811 15812 28
12650 15811 15813 28
12651 15811 15814 28
12652 15811 15815 28
12653 15816 15817 28
12654 15816 15818 28
12655 15816 15819 28
12656 15816 15820 28
12657 15821 15822 28
12658 15821 15823 28
12659 15821 15824 28
12660 15821 15825 28
12661 15826 15827 28
12662 15826 15828 28
12663 15826 15829 28
12664 15826 15830 28
12665 15831 15832 28
12666 15831 15833 28
12667 15831 15834 28
12668 15831 15835 28
12669 15836 15837 28
12670 15836 15838 28
12671 15836 15839 28
12672 15836 15840 28
12673 15841 15842 28
12674 15841 15843 28
12675 15841 15844 28
12676 15841 15845 28
12677 15846 15847 28
12678 15846 15848 28
12679 15846 15849 28
12680 15846 15850 28
12681 15851 15852 28
12682 15851 15853 28
12683 15851 15854 28
12684 15851 15855 28
12685 15856 15857 28
12686 15856 15858 28
12687 15856 15859 28
12688 15856 15860 28
12689 15861 15862 28
12690 15861 15863 28
12691 15861 15864 28
12692 15861 15865 28
12693 15866 15867 28
12694 15866 15868 28
12695 15866 15869 28
12696 15866 15870 28
12697 15871 15872 28
12698 15871 15873 28
12699 15871 15874 28
12700 15871 15875 28
12701 15876 15877 28
12702 15876 15878 28
12703 15876 15879 28
12704 15876 15880 28
12705 15881 15882 28
12706 15881 15883 28
12707 15881 15884 28
12708 15881 15885 28
12709 15886 15887 28
12710 15886 15888 28
12711 15886 15889 28
12712 15886 15890 28
12713 15891 15892 28
12714 15891 15893 28
12715 15891 15894 28
12716 15891 15895 28
12717 15896 15897 28
12718 15896 15898 28
12719 15896 15899 28
12720 15896 15900 28
12721 15901 15902 28
12722 15901 15903 28
12723 15901 15904 28
12724 15901 15905 28
12725 15906 15907 28
12726 15906 15908 28
12727 15906 15909 28
12728 15906 15910 28
12729 15911 15912 28
12730 15911 15913 28
12731 15911 15914 28
12732 15911 15915 28
12733 15916 15917 28
12734 15916 15918 28
12735 15916 15919 28
12736 15916 15920 28
12737 15921 15922 28
12738 15921 15923 28
12739 15921 15924 28
12740 15921 15925 28
12741 15926 15927 28
12742 15926 15928 28
12743 15926 15929 28
12744 15926 15930 28
12745 15931 15932 28
12746 15931 15933 28
12747 15931 15934 28
12748 15931 15935 28
12749 15936 15937 28
12750 15936 15938 28
12751 15936 15939 28
12752 15936 15940 28
12753 15941 15942 28
12754 15941 15943 28
12755 15941 15944 28
12756 15941 15945 28
12757 15946 15947 28
12758 15946 15948 28
12759 15946 15949 28
12760 15946 15950 28
12761 15951 15952 28
12762 15951 15953 28
12763 15951 15954 28
12764 15951 15955 28
12765 15956 15957 28
12766 15956 15958 28
12767 15956 15959 28
12768 15956 15960 28
12769 15961 15962 28
12770 15961 15963 28
12771 15961 15964 28
12772 15961 15965 28
12773 15966 15967 28
12774 15966 15968 28
12775 15966 15969 28
12776 15966 15970 28
12777 15971 15972 28
12778 15971 15973 28
12779 15971 15974 28
12780 15971 15975 28
12781 15976 15977 28
12782 15976 15978 28
12783 15976 15979 28
12784 15976 15980 28
12785 15981 15982 28
12786 15981 15983 28
12787 15981 15984 28
12788 15981 15985 28
12789 15986 15987 28
12790 15986 15988 28
12791 15986 15989 28
12792 15986 15990 28
12793 15991 15992 28
12794 15991 15993 28
12795 15991 15994 28
12796 15991 15995 28
12797 15996 15997 28
12798 15996 15998 28
12799 15996 15999 28
12800 15996 16000 28
12801 16001 16002 28
12802 16001 16003 28
12803 16001 16004 28
12804 16001 16005 28
12805 16006 16007 28
12806 16006 16008 28
12807 16006 16009 28
12808 16006 16010 28
12809 16011 16012 28
12810 16011 16013 28
12811 16011 16014 28
12812 16011 16015 28
12813 16016 16017 28
12814 16016 16018 28
12815 16016 16019 28
12816 16016 16020 28
12817 16021 16022 28
12818 16021 16023 28
12819 16021 16024 28
12820 16021 16025 28
12821 16026 16027 28
12822 16026 16028 28
12823 16026 16029 28
12824 16026 16030 28
12825 16031 16032 28
12826 16031 16033 28
12827 16031 16034 28
12828 16031 16035 28
12829 16036 16037 28
12830 16036 16038 28
12831 16036 16039 28
12832 16036 16040 28
12833 16041 16042 28
12834 16041 16043 28
12835 16041 16044 28
12836 16041 16045 28
12837 16046 16047 28
12838 16046 16048 28
12839 16046 16049 28
12840 16046 16050 28
12841 16051 16052 28
12842 16051 16053 28
12843 16051 16054 28
12844 16051 16055 28
12845 16056 16057 28
12846 16056 16058 28
12847 16056 16059 28
12848 16056 16060 28
12849 16061 16062 28
12850 16061 16063 28
12851 16061 16064 28
12852 16061 16065 28
12853 16066 16067 28
12854 16066 16068 28
12855 16066 16069 28
12856 16066 16070 28
12857 16071 16072 28
12858 16071 16073 28
12859 16071 16074 28
12860 16071 16075 28
12861 16076 16077 28
12862 16076 16078 28
12863 16076 16079 28
12864 16076 16080 28
12865 16081 16082 28
12866 16081 16083 28
12867 16081 16084 28
12868 16081 16085 28
12869 16086 16087 28
12870 16086 16088 28
12871 16086 16089 28
12872 16086 16090 28
12873 16091 16092 28
12874 16091 16093 28
12875 16091 16094 28
12876 16091 16095 28
12877 16096 16097 28
12878 16096 16098 28
12879 16096 16099 28
12880 16096 16100 28
12881 16101 16102 28
12882 16101 16103 28
12883 16101 16104 28
12884 16101 16105 28
12885 16106 16107 28
12886 16106 16108 28
12887 16106 16109 28
12888 16106 16110 28
12889 16111 16112 28
12890 16111 16113 28
12891 16111 16114 28
12892 16111 16115 28
12893 16116 16117 28
12894 16116 16118 28
12895 16116 16119 28
12896 16116 16120 28
12897 16121 16122 28
12898 16121 16123 28
12899 16121 16124 28
12900 16121 16125 28
12901 16126 16127 28
12902 16126 16128 28
12903 16126 16129 28
12904 16126 16130 28
12905 16131 16132 28
12906 16131 16133 28
12907 16131 16134 28
12908 16131 16135 28
12909 16136 16137 28
12910 16136 16138 28
12911 16136 16139 28
12912 16136 16140 28
12913 16141 16142 28
12914 16141 16143 28
12915 16141 16144 28
12916 16141 16145 28
12917 16146 16147 28
12918 16146 16148 28
12919 16146 16149 28
12920 16146 16150 28
12921 16151 16152 28
12922 16151 16153 28
12923 16151 16154 28
12924 16151 16155 28
12925 16156 16157 28
12926 16156 16158 28
12927 16156 16159 28
12928 16156 16160 28
12929 16161 16162 28
12930 16161 16163 28
12931 16161 16164 28
12932 16161 16165 28
12933 16166 16167 28
12934 16166 16168 28
12935 16166 16169 28
12936 16166 16170 28
12937 16171 16172 28
12938 16171 16173 28
12939 16171 16174 28
12940 16171 16175 28
12941 16176 16177 28
12942 16176 16178 28
12943 16176 16179 28
12944 16176 16180 28
12945 16181 16182 28
12946 16181 16183 28
12947 16181 16184 28
12948 16181 16185 28
12949 16186 16187 28
12950 16186 16188 28
12951 16186 16189 28
12952 16186 16190 28
12953 16191 16192 28
12954 16191 16193 28
12955 16191 16194 28
12956 16191 16195 28
12957 16196 16197 28
12958 16196 16198 28
12959 16196 16199 28
12960 16196 16200 28
12961 16201 16202 28
12962 16201 16203 28
12963 16201 16204 28
12964 16201 16205 28
12965 16206 16207 28
12966 16206 16208 28
12967 16206 16209 28
12968 16206 16210 28
12969 16211 16212 28
12970 16211 16213 28
12971 16211 16214 28
12972 16211 16215 28
12973 16216 16217 28
12974 16216 16218 28
12975 16216 16219 28
12976 16216 16220 28
12977 16221 16222 28
12978 16221 16223 28
12979 16221 16224 28
12980 16221 16225 28
12981 16226 16227 28
12982 16226 16228 28
12983 16226 16229 28
12984 16226 16230 28
12985 16231 16232 28
12986 16231 16233 28
12987 16231 16234 28
12988 16231 16235 28
12989 16236 16237 28
12990 16236 16238 28
12991 16236 16239 28
12992 16236 16240 28
12993 16241 16242 28
12994 16241 16243 28
12995 16241 16244 28
12996 16241 16245 28
12997 16246 16247 28
12998 16246 16248 28
12999 16246 16249 28
13000 16246 16250 28
13001 16251 16252 28
13002 16251 16253 28
13003 16251 16254 28
13004 16251 16255 28
13005 16256 16257 28
13006 16256 16258 28
13007 16256 16259 28
13008 16256 16260 28
13009 16261 16262 28
13010 16261 16263 28
13011 16261 16264 28
13012 16261 16265 28
13013 16266 16267 28
13014 16266 16268 28
13015 16266 16269 28
13016 16266 16270 28
13017 16271 16272 28
13018 16271 16273 28
13019 16271 16274 28
13020 16271 16275 28
13021 16276 16277 28
13022 16276 16278 28
13023 16276 16279 28
13024 16276 16280 28
13025 16281 16282 28
13026 16281 16283 28
13027 16281 16284 28
13028 16281 16285 28
13029 16286 16287 28
13030 16286 16288 28
13031 16286 16289 28
13032 16286 16290 28
13033 16291 16292 28
13034 16291 16293 28
13035 16291 16294 28
13036 16291 16295 28
13037 16296 16297 28
13038 16296 16298 28
13039 16296 16299 28
13040 16296 16300 28
13041 16301 16302 28
13042 16301 16303 28
13043 16301 16304 28
13044 16301 16305 28
13045 16306 16307 28
13046 16306 16308 28
13047 16306 16309 28
13048 16306 16310 28
13049 16311 16312 28
13050 16311 16313 28
13051 16311 16314 28
13052 16311 16315 28
13053 16316 16317 28
13054 16316 16318 28
13055 16316 16319 28
13056 16316 16320 28
13057 16321 16322 28
13058 16321 16323 28
13059 16321 16324 28
13060 16321 16325 28
13061 16326 16327 28
13062 16326 16328 28
13063 16326 16329 28
13064 16326 16330 28
13065 16331 16332 28
13066 16331 16333 28
13067 16331 16334 28
13068 16331 16335 28
13069 16336 16337 28
13070 16336 16338 28
13071 16336 16339 28
13072 16336 16340 28
13073 16341 16342 28
13074 16341 16343 28
13075 16341 16344 28
13076 16341 16345 28
13077 16346 16347 28
13078 16346 16348 28
13079 16346 16349 28
13080 16346 16350 28
13081 16351 16352 28
13082 16351 16353 28
13083 16351 16354 28
13084 16351 16355 28
13085 16356 16357 28
13086 16356 16358 28
13087 16356 16359 28
13088 16356 16360 28
13089 16361 16362 28
13090 16361 16363 28
13091 16361 16364 28
13092 16361 16365 28
13093 16366 16367 28
13094 16366 16368 28
13095 16366 16369 28
13096 16366 16370 28
13097 16371 16372 28
13098 16371 16373 28
13099 16371 16374 28
13100 16371 16375 28
13101 16376 16377 28
13102 16376 16378 28
13103 16376 16379 28
13104 16376 16380 28
13105 16381 16382 28
13106 16381 16383 28
13107 16381 16384 28
13108 16381 16385 28
13109 16386 16387 28
13110 16386 16388 28
13111 16386 16389 28
13112 16386 16390 28
13113 16391 16392 28
13114 16391 16393 28
13115 16391 16394 28
13116 16391 16395 28
13117 16396 16397 28
13118 16396 16398 28
13119 16396 16399 28
13120 16396 16400 28
13121 16401 16402 28
13122 16401 16403 28
13123 16401 16404 28
13124 16401 16405 28
13125 16406 16407 28
13126 16406 16408 28
13127 16406 16409 28
13128 16406 16410 28
13129 16411 16412 28
13130 16411 16413 28
13131 16411 16414 28
13132 16411 16415 28
13133 16416 16417 28
13134 16416 16418 28
13135 16416 16419 28
13136 16416 16420 28
13137 16421 16422 28
13138 16421 16423 28
13139 16421 16424 28
13140 16421 16425 28
13141 16426 16427 28
13142 16426 16428 28
13143 16426 16429 28
13144 16426 16430 28
13145 16431 16432 28
13146 16431 16433 28
13147 16431 16434 28
13148 16431 16435 28
13149 16436 16437 28
13150 16436 16438 28
13151 16436 16439 28
13152 16436 16440 28
13153 16441 16442 28
13154 16441 16443 28
13155 16441 16444 28
13156 16441 16445 28
13157 16446 16447 28
13158 16446 16448 28
13159 16446 16449 28
13160 16446 16450 28
13161 16451 16452 28
13162 16451 16453 28
13163 16451 16454 28
13164 16451 16455 28
13165 16456 16457 28
13166 16456 16458 28
13167 16456 16459 28
13168 16456 16460 28
13169 16461 16462 28
13170 16461 16463 28
13171 16461 16464 28
13172 16461 16465 28
13173 16466 16467 28
13174 16466 16468 28
13175 16466 16469 28
13176 16466 16470 28
13177 16471 16472 28
13178 16471 16473 28
13179 16471 16474 28
13180 16471 16475 28
13181 16476 16477 28
13182 16476 16478 28
13183 16476 16479 28
13184 16476 16480 28
13185 16481 16482 28
13186 16481 16483 28
13187 16481 16484 28
13188 16481 16485 28
13189 16486 16487 28
13190 16486 16488 28
13191 16486 16489 28
13192 16486 16490 28
13193 16491 16492 28
13194 16491 16493 28
13195 16491 16494 28
13196 16491 16495 28
13197 16496 16497 28
13198 16496 16498 28
13199 16496 16499 28
13200 16496 16500 28
13201 16501 16502 28
13202 16501 16503 28
13203 16501 16504 28
13204 16501 16505 28
13205 16506 16507 28
13206 16506 16508 28
13207 16506 16509 28
13208 16506 16510 28
13209 16511 16512 28
13210 16511 16513 28
13211 16511 16514 28
13212 16511 16515 28
13213 16516 16517 28
13214 16516 16518 28
13215 16516 16519 28
13216 16516 16520 28
13217 16521 16522 28
13218 16521 16523 28
13219 16521 16524 28
13220 16521 16525 28
13221 16526 16527 28
13222 16526 16528 28
13223 16526 16529 28
13224 16526 16530 28
13225 16531 16532 28
13226 16531 16533 28
13227 16531 16534 28
13228 16531 16535 28
13229 16536 16537 28
13230 16536 16538 28
13231 16536 16539 28
13232 16536 16540 28
13233 16541 16542 28
13234 16541 16543 28
13235 16541 16544 28
13236 16541 16545 28
13237 16546 16547 28
13238 16546 16548 28
13239 16546 16549 28
13240 16546 16550 28
13241 16551 16552 28
13242 16551 16553 28
13243 16551 16554 28
13244 16551 16555 28
13245 16556 16557 28
13246 16556 16558 28
13247 16556 16559 28
13248 16556 16560 28
13249 16561 16562 28
13250 16561 16563 28
13251 16561 16564 28
13252 16561 16565 28
13253 16566 16567 28
13254 16566 16568 28
13255 16566 16569 28
13256 16566 16570 28
13257 16571 16572 28
13258 16571 16573 28
13259 16571 16574 28
13260 16571 16575 28
13261 16576 16577 28
13262 16576 16578 28
13263 16576 16579 28
13264 16576 16580 28
13265 16581 16582 28
13266 16581 16583 28
13267 16581 16584 28
13268 16581 16585 28
13269 16586 16587 28
13270 16586 16588 28
13271 16586 16589 28
13272 16586 16590 28
13273 16591 16592 28
13274 16591 16593 28
13275 16591 16594 28
13276 16591 16595 28
13277 16596 16597 28
13278 16596 16598 28
13279 16596 16599 28
13280 16596 16600 28
13281 16601 16602 28
13282 16601 16603 28
13283 16601 16604 28
13284 16601 16605 28
13285 16606 16607 28
13286 16606 16608 28
13287 16606 16609 28
13288 16606 16610 28
13289 16611 16612 28
13290 16611 16613 28
13291 16611 16614 28
13292 16611 16615 28
13293 16616 16617 28
13294 16616 16618 28
13295 16616 16619 28
13296 16616 16620 28
13297 16621 16622 28
13298 16621 16623 28
13299 16621 16624 28
13300 16621 16625 28
13301 16626 16627 28
13302 16626 16628 28
13303 16626 16629 28
13304 16626 16630 28
13305 16631 16632 28
13306 16631 16633 28
13307 16631 16634 28
13308 16631 16635 28
13309 16636 16637 28
13310 16636 16638 28
13311 16636 16639 28
13312 16636 16640 28
13313 16641 16642 28
13314 16641 16643 28
13315 16641 16644 28
13316 16641 16645 28
13317 16646 16647 28
13318 16646 16648 28
13319 16646 16649 28
13320 16646 16650 28
13321 16651 16652 28
13322 16651 16653 28
13323 16651 16654 28
13324 16651 16655 28
13325 16656 16657 28
13326 16656 16658 28
13327 16656 16659 28
13328 16656 16660 28
13329 16661 16662 28
13330 16661 16663 28
13331 16661 16664 28
13332 16661 16665 28
13333 16666 16667 28
13334 16666 16668 28
13335 16666 16669 28
13336 16666 16670 28
13337 16671 16672 28
13338 16671 16673 28
13339 16671 16674 28
13340 16671 16675 28
13341 16676 16677 28
13342 16676 16678 28
13343 16676 16679 28
13344 16676 16680 28
13345 16681 16682 28
13346 16681 16683 28
13347 16681 16684 28
13348 16681 16685 28
13349 16686 16687 28
13350 16686 16688 28
13351 16686 16689 28
13352 16686 16690 28
13353 16691 16692 28
13354 16691 16693 28
13355 16691 16694 28
13356 16691 16695 28
13357 16696 16697 28
13358 16696 16698 28
13359 16696 16699 28
13360 16696 16700 28
13361 16701 16702 28
13362 16701 16703 28
13363 16701 16704 28
13364 16701 16705 28
13365 16706 16707 28
13366 16706 16708 28
13367 16706 16709 28
13368 16706 16710 28
13369 16711 16712 28
13370 16711 16713 28
13371 16711 16714 28
13372 16711 16715 28
13373 16716 16717 28
13374 16716 16718 28
13375 16716 16719 28
13376 16716 16720 28
13377 16721 16722 28
13378 16721 16723 28
13379 16721 16724 28
13380 16721 16725 28
13381 16726 16727 28
13382 16726 16728 28
13383 16726 16729 28
13384 16726 16730 28
13385 16731 16732 28
13386 16731 16733 28
13387 16731 16734 28
13388 16731 16735 28
13389 16736 16737 28
13390 16736 16738 28
13391 16736 16739 28
13392 16736 16740 28
13393 16741 16742 28
13394 16741 16743 28
13395 16741 16744 28
13396 16741 16745 28
13397 16746 16747 28
13398 16746 16748 28
13399 16746 16749 28
13400 16746 16750 28
13401 16751 16752 28
13402 16751 16753 28
13403 16751 16754 28
13404 16751 16755 28
13405 16756 16757 28
13406 16756 16758 28
13407 16756 16759 28
13408 16756 16760 28
13409 16761 16762 28
13410 16761 16763 28
13411 16761 16764 28
13412 16761 16765 28
13413 16766 16767 28
13414 16766 16768 28
13415 16766 16769 28
13416 16766 16770 28
13417 16771 16772 28
13418 16771 16773 28
13419 16771 16774 28
13420 16771 16775 28
13421 16776 16777 28
13422 16776 16778 28
13423 16776 16779 28
13424 16776 16780 28
13425 16781 16782 28
13426 16781 16783 28
13427 16781 16784 28
13428 16781 16785 28
13429 16786 16787 28
13430 16786 16788 28
13431 16786 16789 28
13432 16786 16790 28
13433 16791 16792 28
13434 16791 16793 28
13435 16791 16794 28
13436 16791 16795 28
13437 16796 16797 28
13438 16796 16798 28
13439 16796 16799 28
13440 16796 16800 28
13441 16801 16802 28
13442 16801 16803 28
13443 16801 16804 28
13444 16801 16805 28
13445 16806 16807 28
13446 16806 16808 28
13447 16806 16809 28
13448 16806 16810 28
13449 16811 16812 28
13450 16811 16813 28
13451 16811 16814 28
13452 16811 16815 28
13453 16816 16817 28
13454 16816 16818 28
13455 16816 16819 28
13456 16816 16820 28
13457 16821 16822 28
13458 16821 16823 28
13459 16821 16824 28
13460 16821 16825 28
13461 16826 16827 28
13462 16826 16828 28
13463 16826 16829 28
13464 16826 16830 28
13465 16831 16832 28
13466 16831 16833 28
13467 16831 16834 28
13468 16831 16835 28
13469 16836 16837 28
13470 16836 16838 28
13471 16836 16839 28
13472 16836 16840 28
13473 16841 16842 28
13474 16841 16843 28
13475 16841 16844 28
13476 16841 16845 28
13477 16846 16847 28
13478 16846 16848 28
13479 16846 16849 28
13480 16846 16850 28
13481 16851 16852 28
13482 16851 16853 28
13483 16851 16854 28
13484 16851 16855 28
13485 16856 16857 28
13486 16856 16858 28
13487 16856 16859 28
13488 16856 16860 28
13489 16861 16862 28
13490 16861 16863 28
13491 16861 16864 28
13492 16861 16865 28
13493 16866 16867 28
13494 16866 16868 28
13495 16866 16869 28
13496 16866 16870 28
13497 16871 16872 28
13498 16871 16873 28
13499 16871 16874 28
13500 16871 16875 28
13501 16876 16877 28
13502 16876 16878 28
13503 16876 16879 28
13504 16876 16880 28
13505 16881 16882 28
13506 16881 16883 28
13507 16881 16884 28
13508 16881 16885 28
13509 16886 16887 28
13510 16886 16888 28
13511 16886 16889 28
13512 16886 16890 28
13513 16891 16892 28
13514 16891 16893 28
13515 16891 16894 28
13516 16891 16895 28
13517 16896 16897 28
13518 16896 16898 28
13519 16896 16899 28
13520 16896 16900 28
13521 16901 16902 28
13522 16901 16903 28
13523 16901 16904 28
13524 16901 16905 28
13525 16906 16907 28
13526 16906 16908 28
13527 16906 16909 28
13528 16906 16910 28
13529 16911 16912 28
13530 16911 16913 28
13531 16911 16914 28
13532 16911 16915 28
13533 16916 16917 28
13534 16916 16918 28
13535 16916 16919 28
13536 16916 16920 28
13537 16921 16922 28
13538 16921 16923 28
13539 16921 16924 28
13540 16921 16925 28
13541 16926 16927 28
13542 16926 16928 28
13543 16926 16929 28
13544 16926 16930 28
13545 16931 16932 28
13546 16931 16933 28
13547 16931 16934 28
13548 16931 16935 28
13549 16936 16937 28
13550 16936 16938 28
13551 16936 16939 28
13552 16936 16940 28
13553 16941 16942 28
13554 16941 16943 28
13555 16941 16944 28
13556 16941 16945 28
13557 16946 16947 28
13558 16946 16948 28
13559 16946 16949 28
13560 16946 16950 28
13561 16951 16952 28
13562 16951 16953 28
13563 16951 16954 28
13564 16951 16955 28
13565 16956 16957 28
13566 16956 16958 28
13567 16956 16959 28
13568 16956 16960 28
13569 16961 16962 28
13570 16961 16963 28
13571 16961 16964 28
13572 16961 16965 28
13573 16966 16967 28
13574 16966 16968 28
13575 16966 16969 28
13576 16966 16970 28
13577 16971 16972 28
13578 16971 16973 28
13579 16971 16974 28
13580 16971 16975 28
13581 16976 16977 28
13582 16976 16978 28
13583 16976 16979 28
13584 16976 16980 28
13585 16981 16982 28
13586 16981 16983 28
13587 16981 16984 28
13588 16981 16985 28
13589 16986 16987 28
13590 16986 16988 28
13591 16986 16989 28
13592 16986 16990 28
13593 16991 16992 28
13594 16991 16993 28
13595 16991 16994 28
13596 16991 16995 28
13597 16996 16997 28
13598 16996 16998 28
13599 16996 16999 28
13600 16996 17000 28
13601 17001 17002 28
13602 17001 17003 28
13603 17001 17004 28
13604 17001 17005 28
13605 17006 17007 28
13606 17006 17008 28
13607 17006 17009 28
13608 17006 17010 28
13609 17011 17012 28
13610 17011 17013 28
13611 17011 17014 28
13612 17011 17015 28
13613 17016 17017 28
13614 17016 17018 28
13615 17016 17019 28
13616 17016 17020 28
13617 17021 17022 28
13618 17021 17023 28
13619 17021 17024 28
13620 17021 17025 28
13621 17026 17027 28
13622 17026 17028 28
13623 17026 17029 28
13624 17026 17030 28
13625 17031 17032 28
13626 17031 17033 28
13627 17031 17034 28
13628 17031 17035 28
13629 17036 17037 28
13630 17036 17038 28
13631 17036 17039 28
13632 17036 17040 28
13633 17041 17042 28
13634 17041 17043 28
13635 17041 17044 28
13636 17041 17045 28
13637 17046 17047 28
13638 17046 17048 28
13639 17046 17049 28
13640 17046 17050 28
13641 17051 17052 28
13642 17051 17053 28
13643 17051 17054 28
13644 17051 17055 28
13645 17056 17057 28
13646 17056 17058 28
13647 17056 17059 28
13648 17056 17060 28
13649 17061 17062 28
13650 17061 17063 28
13651 17061 17064 28
13652 17061 17065 28
13653 17066 17067 28
13654 17066 17068 28
13655 17066 17069 28
13656 17066 17070 28
13657 17071 17072 28
13658 17071 17073 28
13659 17071 17074 28
13660 17071 17075 28
13661 17076 17077 28
13662 17076 17078 28
13663 17076 17079 28
13664 17076 17080 28
13665 17081 17082 28
13666 17081 17083 28
13667 17081 17084 28
13668 17081 17085 28
13669 17086 17087 28
13670 17086 17088 28
13671 17086 17089 28
13672 17086 17090 28
13673 17091 17092 28
13674 17091 17093 28
13675 17091 17094 28
13676 17091 17095 28
13677 17096 17097 28
13678 17096 17098 28
13679 17096 17099 28
13680 17096 17100 28
13681 17101 17102 28
13682 17101 17103 28
13683 17101 17104 28
13684 17101 17105 28
13685 17106 17107 28
13686 17106 17108 28
13687 17106 17109 28
13688 17106 17110 28
13689 17111 17112 28
13690 17111 17113 28
13691 17111 17114 28
13692 17111 17115 28
13693 17116 17117 28
13694 17116 17118 28
13695 17116 17119 28
13696 17116 17120 28
13697 17121 17122 28
13698 17121 17123 28
13699 17121 17124 28
13700 17121 17125 28
13701 17126 17127 28
13702 17126 17128 28
13703 17126 17129 28
13704 17126 17130 28
13705 17131 17132 28
13706 17131 17133 28
13707 17131 17134 28
13708 17131 17135 28
13709 17136 17137 28
13710 17136 17138 28
13711 17136 17139 28
13712 17136 17140 28
13713 17141 17142 28
13714 17141 17143 28
13715 17141 17144 28
13716 17141 17145 28
13717 17146 17147 28
13718 17146 17148 28
13719 17146 17149 28
13720 17146 17150 28
13721 17151 17152 28
13722 17151 17153 28
13723 17151 17154 28
13724 17151 17155 28
13725 17156 17157 28
13726 17156 17158 28
13727 17156 17159 28
13728 17156 17160 28
13729 17161 17162 28
13730 17161 17163 28
13731 17161 17164 28
13732 17161 17165 28
13733 17166 17167 28
13734 17166 17168 28
13735 17166 17169 28
13736 17166 17170 28
13737 17171 17172 28
13738 17171 17173 28
13739 17171 17174 28
13740 17171 17175 28
13741 17176 17177 28
13742 17176 17178 28
13743 17176 17179 28
13744 17176 17180 28
13745 17181 17182 28
13746 17181 17183 28
13747 17181 17184 28
13748 17181 17185 28
13749 17186 17187 28
13750 17186 17188 28
13751 17186 17189 28
13752 17186 17190 28
13753 17191 17192 28
13754 17191 17193 28
13755 17191 17194 28
13756 17191 17195 28
13757 17196 17197 28
13758 17196 17198 28
13759 17196 17199 28
13760 17196 17200 28
13761 17201 17202 28
13762 17201 17203 28
13763 17201 17204 28
13764 17201 17205 28
13765 17206 17207 28
13766 17206 17208 28
13767 17206 17209 28
13768 17206 17210 28
13769 17211 17212 28
13770 17211 17213 28
13771 17211 17214 28
13772 17211 17215 28
13773 17216 17217 28
13774 17216 17218 28
13775 17216 17219 28
13776 17216 17220 28
13777 17221 17222 28
13778 17221 17223 28
13779 17221 17224 28
13780 17221 17225 28
13781 17226 17227 28
13782 17226 17228 28
13783 17226 17229 28
13784 17226 17230 28
13785 17231 17232 28
13786 17231 17233 28
13787 17231 17234 28
13788 17231 17235 28
13789 17236 17237 28
13790 17236 17238 28
13791 17236 17239 28
13792 17236 17240 28
13793 17241 17242 28
13794 17241 17243 28
13795 17241 17244 28
13796 17241 17245 28
13797 17246 17247 28
13798 17246 17248 28
13799 17246 17249 28
13800 17246 17250 28
13801 17251 17252 28
13802 17251 17253 28
13803 17251 17254 28
13804 17251 17255 28
13805 17256 17257 28
13806 17256 17258 28
13807 17256 17259 28
13808 17256 17260 28
13809 17261 17262 28
13810 17261 17263 28
13811 17261 17264 28
13812 17261 17265 28
13813 17266 17267 28
13814 17266 17268 28
13815 17266 17269 28
13816 17266 17270 28
13817 17271 17272 28
13818 17271 17273 28
13819 17271 17274 28
13820 17271 17275 28
13821 17276 17277 28
13822 17276 17278 28
13823 17276 17279 28
13824 17276 17280 28
13825 17281 17282 28
13826 17281 17283 28
13827 17281 17284 28
13828 17281 17285 28
13829 17286 17287 28
13830 17286 17288 28
13831 17286 17289 28
13832 17286 17290 28
13833 17291 17292 28
13834 17291 17293 28
13835 17291 17294 28
13836 17291 17295 28
13837 17296 17297 28
13838 17296 17298 28
13839 17296 17299 28
13840 17296 17300 28
13841 17301 17302 28
13842 17301 17303 28
13843 17301 17304 28
13844 17301 17305 28
13845 17306 17307 28
13846 17306 17308 28
13847 17306 17309 28
13848 17306 17310 28
13849 17311 17312 28
13850 17311 17313 28
13851 17311 17314 28
13852 17311 17315 28
13853 17316 17317 28
13854 17316 17318 28
13855 17316 17319 28
13856 17316 17320 28
13857 17321 17322 28
13858 17321 17323 28
13859 17321 17324 28
13860 17321 17325 28
13861 17326 17327 28
13862 17326 17328 28
13863 17326 17329 28
13864 17326 17330 28
13865 17331 17332 28
13866 17331 17333 28
13867 17331 17334 28
13868 17331 17335 28
13869 17336 17337 28
13870 17336 17338 28
13871 17336 17339 28
13872 17336 17340 28
13873 17341 17342 28
13874 17341 17343 28
13875 17341 17344 28
13876 17341 17345 28
13877 17346 17347 28
13878 17346 17348 28
13879 17346 17349 28
13880 17346 17350 28
13881 17351 17352 28
13882 17351 17353 28
13883 17351 17354 28
13884 17351 17355 28
13885 17356 17357 28
13886 17356 17358 28
13887 17356 17359 28
13888 17356 17360 28
13889 17361 17362 28
13890 17361 17363 28
13891 17361 17364 28
13892 17361 17365 28
13893 17366 17367 28
13894 17366 17368 28
13895 17366 17369 28
13896 17366 17370 28
13897 17371 17372 28
13898 17371 17373 28
13899 17371 17374 28
13900 17371 17375 28
13901 17376 17377 28
13902 17376 17378 28
13903 17376 17379 28
13904 17376 17380 28
13905 17381 17382 28
13906 17381 17383 28
13907 17381 17384 28
13908 17381 17385 28
13909 17386 17387 28
13910 17386 17388 28
13911 17386 17389 28
13912 17386 17390 28
13913 17391 17392 28
13914 17391 17393 28
13915 17391 17394 28
13916 17391 17395 28
13917 17396 17397 28
13918 17396 17398 28
13919 17396 17399 28
13920 17396 17400 28
13921 17401 17402 28
13922 17401 17403 28
13923 17401 17404 28
13924 17401 17405 28
13925 17406 17407 28
13926 17406 17408 28
13927 17406 17409 28
13928 17406 17410 28
13929 17411 17412 28
13930 17411 17413 28
13931 17411 17414 28
13932 17411 17415 28
13933 17416 17417 28
13934 17416 17418 28
13935 17416 17419 28
13936 17416 17420 28
13937 17421 17422 28
13938 17421 17423 28
13939 17421 17424 28
13940 17421 17425 28
13941 17426 17427 28
13942 17426 17428 28
13943 17426 17429 28
13944 17426 17430 28
13945 17431 17432 28
13946 17431 17433 28
13947 17431 17434 28
13948 17431 17435 28
13949 17436 17437 28
13950 17436 17438 28
13951 17436 17439 28
13952 17436 17440 28
13953 17441 17442 28
13954 17441 17443 28
13955 17441 17444 28
13956 17441 17445 28
13957 17446 17447 28
13958 17446 17448 28
13959 17446 17449 28
13960 17446 17450 28
13961 17451 17452 28
13962 17451 17453 28
13963 17451 17454 28
13964 17451 17455 28
13965 17456 17457 28
13966 17456 17458 28
13967 17456 17459 28
13968 17456 17460 28
13969 17461 17462 28
13970 17461 17463 28
13971 17461 17464 28
13972 17461 17465 28
13973 17466 17467 28
13974 17466 17468 28
13975 17466 17469 28
13976 17466 17470 28
13977 17471 17472 28
13978 17471 17473 28
13979 17471 17474 28
13980 17471 17475 28
13981 17476 17477 28
13982 17476 17478 28
13983 17476 17479 28
13984 17476 17480 28
13985 17481 17482 28
13986 17481 17483 28
13987 17481 17484 28
13988 17481 17485 28
13989 17486 17487 28
13990 17486 17488 28
13991 17486 17489 28
13992 17486 17490 28
13993 17491 17492 28
13994 17491 17493 28
13995 17491 17494 28
13996 17491 17495 28
13997 17496 17497 28
13998 17496 17498 28
13999 17496 17499 28
14000 17496 17500 28
14001 17501 17502 28
14002 17501 17503 28
14003 17501 17504 28
14004 17501 17505 28
14005 17506 17507 28
14006 17506 17508 28
14007 17506 17509 28
14008 17506 17510 28
14009 17511 17512 28
14010 17511 17513 28
14011 17511 17514 28
14012 17511 17515 28
14013 17516 17517 28
14014 17516 17518 28
14015 17516 17519 28
14016 17516 17520 28
14017 17521 17522 28
14018 17521 17523 28
14019 17521 17524 28
14020 17521 17525 28
14021 17526 17527 28
14022 17526 17528 28
14023 17526 17529 28
14024 17526 17530 28
14025 17531 17532 28
14026 17531 17533 28
14027 17531 17534 28
14028 17531 17535 28
14029 17536 17537 28
14030 17536 17538 28
14031 17536 17539 28
14032 17536 17540 28
14033 17541 17542 28
14034 17541 17543 28
14035 17541 17544 28
14036 17541 17545 28
14037 17546 17547 28
14038 17546 17548 28
14039 17546 17549 28
14040 17546 17550 28
14041 17551 17552 28
14042 17551 17553 28
14043 17551 17554 28
14044 17551 17555 28
14045 17556 17557 28
14046 17556 17558 28
14047 17556 17559 28
14048 17556 17560 28
14049 17561 17562 28
14050 17561 17563 28
14051 17561 17564 28
14052 17561 17565 28
14053 17566 17567 28
14054 17566 17568 28
14055 17566 17569 28
14056 17566 17570 28
14057 17571 17572 28
14058 17571 17573 28
14059 17571 17574 28
14060 17571 17575 28
14061 17576 17577 28
14062 17576 17578 28
14063 17576 17579 28
14064 17576 17580 28
14065 17581 17582 28
14066 17581 17583 28
14067 17581 17584 28
14068 17581 17585 28
14069 17586 17587 28
14070 17586 17588 28
14071 17586 17589 28
14072 17586 17590 28
14073 17591 17592 28
14074 17591 17593 28
14075 17591 17594 28
14076 17591 17595 28
14077 17596 17597 28
14078 17596 17598 28
14079 17596 17599 28
14080 17596 17600 28
14081 17601 17602 28
14082 17601 17603 28
14083 17601 17604 28
14084 17601 17605 28
14085 17606 17607 28
14086 17606 17608 28
14087 17606 17609 28
14088 17606 17610 28
14089 17611 17612 28
14090 17611 17613 28
14091 17611 17614 28
14092 17611 17615 28
14093 17616 17617 28
14094 17616 17618 28
14095 17616 17619 28
14096 17616 17620 28
14097 17621 17622 28
14098 17621 17623 28
14099 17621 17624 28
14100 17621 17625 28
14101 17626 17627 28
14102 17626 17628 28
14103 17626 17629 28
14104 17626 17630 28
14105 17631 17632 28
14106 17631 17633 28
14107 17631 17634 28
14108 17631 17635 28
14109 17636 17637 28
14110 17636 17638 28
14111 17636 17639 28
14112 17636 17640 28
14113 17641 17642 28
14114 17641 17643 28
14115 17641 17644 28
14116 17641 17645 28
14117 17646 17647 28
14118 17646 17648 28
14119 17646 17649 28
14120 17646 17650 28
14121 17651 17652 28
14122 17651 17653 28
14123 17651 17654 28
14124 17651 17655 28
14125 17656 17657 28
14126 17656 17658 28
14127 17656 17659 28
14128 17656 17660 28
14129 17661 17662 28
14130 17661 17663 28
14131 17661 17664 28
14132 17661 17665 28
14133 17666 17667 28
14134 17666 17668 28
14135 17666 17669 28
14136 17666 17670 28
14137 17671 17672 28
14138 17671 17673 28
14139 17671 17674 28
14140 17671 17675 28
14141 17676 17677 28
14142 17676 17678 28
14143 17676 17679 28
14144 17676 17680 28
14145 17681 17682 28
14146 17681 17683 28
14147 17681 17684 28
14148 17681 17685 28
14149 17686 17687 28
14150 17686 17688 28
14151 17686 17689 28
14152 17686 17690 28
14153 17691 17692 28
14154 17691 17693 28
14155 17691 17694 28
14156 17691 17695 28
14157 17696 17697 28
14158 17696 17698 28
14159 17696 17699 28
14160 17696 17700 28
14161 17701 17702 28
14162 17701 17703 28
14163 17701 17704 28
14164 17701 17705 28
14165 17706 17707 28
14166 17706 17708 28
14167 17706 17709 28
14168 17706 17710 28
14169 17711 17712 28
14170 17711 17713 28
14171 17711 17714 28
14172 17711 17715 28
14173 17716 17717 28
14174 17716 17718 28
14175 17716 17719 28
14176 17716 17720 28
14177 17721 17722 28
14178 17721 17723 28
14179 17721 17724 28
14180 17721 17725 28
14181 17726 17727 28
14182 17726 17728 28
14183 17726 17729 28
14184 17726 17730 28
14185 17731 17732 28
14186 17731 17733 28
14187 17731 17734 28
14188 17731 17735 28
14189 17736 17737 28
14190 17736 17738 28
14191 17736 17739 28
14192 17736 17740 28
14193 17741 17742 28
14194 17741 17743 28
14195 17741 17744 28
14196 17741 17745 28
14197 17746 17747 28
14198 17746 17748 28
14199 17746 17749 28
14200 17746 17750 28
14201 17751 17752 28
14202 17751 17753 28
14203 17751 17754 28
14204 17751 17755 28
14205 17756 17757 28
14206 17756 17758 28
14207 17756 17759 28
14208 17756 17760 28
14209 17761 17762 28
14210 17761 17763 28
14211 17761 17764 28
14212 17761 17765 28
14213 17766 17767 28
14214 17766 17768 28
14215 17766 17769 28
14216 17766 17770 28
14217 17771 17772 28
14218 17771 17773 28
14219 17771 17774 28
14220 17771 17775 28
14221 17776 17777 28
14222 17776 17778 28
14223 17776 17779 28
14224 17776 17780 28
14225 17781 17782 28
14226 17781 17783 28
14227 17781 17784 28
14228 17781 17785 28
14229 17786 17787 28
14230 17786 17788 28
14231 17786 17789 28
14232 17786 17790 28
14233 17791 17792 28
14234 17791 17793 28
14235 17791 17794 28
14236 17791 17795 28
14237 17796 17797 28
14238 17796 17798 28
14239 17796 17799 28
14240 17796 17800 28
14241 17801 17802 28
14242 17801 17803 28
14243 17801 17804 28
14244 17801 17805 28
14245 17806 17807 28
14246 17806 17808 28
14247 17806 17809 28
14248 17806 17810 28
14249 17811 17812 28
14250 17811 17813 28
14251 17811 17814 28
14252 17811 17815 28
14253 17816 17817 28
14254 17816 17818 28
14255 17816 17819 28
14256 17816 17820 28
14257 17821 17822 28
14258 17821 17823 28
14259 17821 17824 28
14260 17821 17825 28
14261 17826 17827 28
14262 17826 17828 28
14263 17826 17829 28
14264 17826 17830 28
14265 17831 17832 28
14266 17831 17833 28
14267 17831 17834 28
14268 17831 17835 28
14269 17836 17837 28
14270 17836 17838 28
14271 17836 17839 28
14272 17836 17840 28
14273 17841 17842 28
14274 17841 17843 28
14275 17841 17844 28
14276 17841 17845 28
14277 17846 17847 28
14278 17846 17848 28
14279 17846 17849 28
14280 17846 17850 28
14281 17851 17852 28
14282 17851 17853 28
14283 17851 17854 28
14284 17851 17855 28
14285 17856 17857 28
14286 17856 17858 28
14287 17856 17859 28
14288 17856 17860 28
14289 17861 17862 28
14290 17861 17863 28
14291 17861 17864 28
14292 17861 17865 28
14293 17866 17867 28
14294 17866 17868 28
14295 17866 17869 28
14296 17866 17870 28
14297 17871 17872 28
14298 17871 17873 28
14299 17871 17874 28
14300 17871 17875 28
14301 17876 17877 28
14302 17876 17878 28
14303 17876 17879 28
14304 17876 17880 28
14305 17881 17882 28
14306 17881 17883 28
14307 17881 17884 28
14308 17881 17885 28
14309 17886 17887 28
14310 17886 17888 28
14311 17886 17889 28
14312 17886 17890 28
14313 17891 17892 28
14314 17891 17893 28
14315 17891 17894 28
14316 17891 17895 28
14317 17896 17897 28
14318 17896 17898 28
14319 17896 17899 28
14320 17896 17900 28
14321 17901 17902 28
14322 17901 17903 28
14323 17901 17904 28
14324 17901 17905 28
14325 17906 17907 28
14326 17906 17908 28
14327 17906 17909 28
14328 17906 17910 28
14329 17911 17912 28
14330 17911 17913 28
14331 17911 17914 28
14332 17911 17915 28
14333 17916 17917 28
14334 17916 17918 28
14335 17916 17919 28
14336 17916 17920 28
14337 17921 17922 28
14338 17921 17923 28
14339 17921 17924 28
14340 17921 17925 28
14341 17926 17927 28
14342 17926 17928 28
14343 17926 17929 28
14344 17926 17930 28
14345 17931 17932 28
14346 17931 17933 28
14347 17931 17934 28
14348 17931 17935 28
14349 17936 17937 28
14350 17936 17938 28
14351 17936 17939 28
14352 17936 17940 28
14353 17941 17942 28
14354 17941 17943 28
14355 17941 17944 28
14356 17941 17945 28
14357 17946 17947 28
14358 17946 17948 28
14359 17946 17949 28
14360 17946 17950 28
14361 17951 17952 28
14362 17951 17953 28
14363 17951 17954 28
14364 17951 17955 28
14365 17956 17957 28
14366 17956 17958 28
14367 17956 17959 28
14368 17956 17960 28
14369 17961 17962 28
14370 17961 17963 28
14371 17961 17964 28
14372 17961 17965 28
14373 17966 17967 28
14374 17966 17968 28
14375 17966 17969 28
14376 17966 17970 28
14377 17971 17972 28
14378 17971 17973 28
14379 17971 17974 28
14380 17971 17975 28
14381 17976 17977 28
14382 17976 17978 28
14383 17976 17979 28
14384 17976 17980 28
14385 17981 17982 28
14386 17981 17983 28
14387 17981 17984 28
14388 17981 17985 28
14389 17986 17987 28
14390 17986 17988 28
14391 17986 17989 28
14392 17986 17990 28
14393 17991 17992 28
14394 17991 17993 28
14395 17991 17994 28
14396 17991 17995 28
14397 17996 17997 28
14398 17996 17998 28
14399 17996 17999 28
14400 17996 18000 28
14401 18001 18002 28
14402 18001 18003 28
14403 18001 18004 28
14404 18001 18005 28
14405 18006 18007 28
14406 18006 18008 28
14407 18006 18009 28
14408 18006 18010 28
14409 18011 18012 28
14410 18011 18013 28
14411 18011 18014 28
14412 18011 18015 28
14413 18016 18017 28
14414 18016 18018 28
14415 18016 18019 28
14416 18016 18020 28
14417 18021 18022 28
14418 18021 18023 28
14419 18021 18024 28
14420 18021 18025 28
14421 18026 18027 28
14422 18026 18028 28
14423 18026 18029 28
14424 18026 18030 28
14425 18031 18032 28
14426 18031 18033 28
14427 18031 18034 28
14428 18031 18035 28
14429 18036 18037 28
14430 18036 18038 28
14431 18036 18039 28
14432 18036 18040 28
14433 18041 18042 28
14434 18041 18043 28
14435 18041 18044 28
14436 18041 18045 28
14437 18046 18047 28
14438 18046 18048 28
14439 18046 18049 28
14440 18046 18050 28
14441 18051 18052 28
14442 18051 18053 28
14443 18051 18054 28
14444 18051 18055 28
14445 18056 18057 28
14446 18056 18058 28
14447 18056 18059 28
14448 18056 18060 28
14449 18061 18062 28
14450 18061 18063 28
14451 18061 18064 28
14452 18061 18065 28
14453 18066 18067 28
14454 18066 18068 28
14455 18066 18069 28
14456 18066 18070 28
14457 18071 18072 28
14458 18071 18073 28
14459 18071 18074 28
14460 18071 18075 28
14461 18076 18077 28
14462 18076 18078 28
14463 18076 18079 28
14464 18076 18080 28
14465 18081 18082 28
14466 18081 18083 28
14467 18081 18084 28
14468 18081 18085 28
14469 18086 18087 28
14470 18086 18088 28
14471 18086 18089 28
14472 18086 18090 28
14473 18091 18092 28
14474 18091 18093 28
14475 18091 18094 28
14476 18091 18095 28
14477 18096 18097 28
14478 18096 18098 28
14479 18096 18099 28
14480 18096 18100 28
14481 18101 18102 28
14482 18101 18103 28
14483 18101 18104 28
14484 18101 18105 28
14485 18106 18107 28
14486 18106 18108 28
14487 18106 18109 28
14488 18106 18110 28
14489 18111 18112 28
14490 18111 18113 28
14491 18111 18114 28
14492 18111 18115 28
14493 18116 18117 28
14494 18116 18118 28
14495 18116 18119 28
14496 18116 18120 28
14497 18121 18122 28
14498 18121 18123 28
14499 18121 18124 28
14500 18121 18125 28
14501 18126 18127 28
14502 18126 18128 28
14503 18126 18129 28
14504 18126 18130 28
14505 18131 18132 28
14506 18131 18133 28
14507 18131 18134 28
14508 18131 18135 28
14509 18136 18137 28
14510 18136 18138 28
14511 18136 18139 28
14512 18136 18140 28
14513 18141 18142 28
14514 18141 18143 28
14515 18141 18144 28
14516 18141 18145 28
14517 18146 18147 28
14518 18146 18148 28
14519 18146 18149 28
14520 18146 18150 28
14521 18151 18152 28
14522 18151 18153 28
14523 18151 18154 28
14524 18151 18155 28
14525 18156 18157 28
14526 18156 18158 28
14527 18156 18159 28
14528 18156 18160 28
14529 18161 18162 28
14530 18161 18163 28
14531 18161 18164 28
14532 18161 18165 28
14533 18166 18167 28
14534 18166 18168 28
14535 18166 18169 28
14536 18166 18170 28
14537 18171 18172 28
14538 18171 18173 28
14539 18171 18174 28
14540 18171 18175 28
14541 18176 18177 28
14542 18176 18178 28
14543 18176 18179 28
14544 18176 18180 28
14545 18181 18182 28
14546 18181 18183 28
14547 18181 18184 28
14548 18181 18185 28
14549 18186 18187 28
14550 18186 18188 28
14551 18186 18189 28
14552 18186 18190 28
14553 18191 18192 28
14554 18191 18193 28
14555 18191 18194 28
14556 18191 18195 28
14557 18196 18197 28
14558 18196 18198 28
14559 18196 18199 28
14560 18196 18200 28
14561 18201 18202 28
14562 18201 18203 28
14563 18201 18204 28
14564 18201 18205 28
14565 18206 18207 28
14566 18206 18208 28
14567 18206 18209 28
14568 18206 18210 28
14569 18211 18212 28
14570 18211 18213 28
14571 18211 18214 28
14572 18211 18215 28
14573 18216 18217 28
14574 18216 18218 28
14575 18216 18219 28
14576 18216 18220 28
14577 18221 18222 28
14578 18221 18223 28
14579 18221 18224 28
14580 18221 18225 28
14581 18226 18227 28
14582 18226 18228 28
14583 18226 18229 28
14584 18226 18230 28
14585 18231 18232 28
14586 18231 18233 28
14587 18231 18234 28
14588 18231 18235 28
14589 18236 18237 28
14590 18236 18238 28
14591 18236 18239 28
14592 18236 18240 28
14593 18241 18242 28
14594 18241 18243 28
14595 18241 18244 28
14596 18241 18245 28
14597 18246 18247 28
14598 18246 18248 28
14599 18246 18249 28
14600 18246 18250 28
14601 18251 18252 28
14602 18251 18253 28
14603 18251 18254 28
14604 18251 18255 28
14605 18256 18257 28
14606 18256 18258 28
14607 18256 18259 28
14608 18256 18260 28
14609 18261 18262 28
14610 18261 18263 28
14611 18261 18264 28
14612 18261 18265 28
14613 18266 18267 28
14614 18266 18268 28
14615 18266 18269 28
14616 18266 18270 28
14617 18271 18272 28
14618 18271 18273 28
14619 18271 18274 28
14620 18271 18275 28
14621 18276 18277 28
14622 18276 18278 28
14623 18276 18279 28
14624 18276 18280 28
14625 18281 18282 28
14626 18281 18283 28
14627 18281 18284 28
14628 18281 18285 28
14629 18286 18287 28
14630 18286 18288 28
14631 18286 18289 28
14632 18286 18290 28
14633 18291 18292 28
14634 18291 18293 28
14635 18291 18294 28
14636 18291 18295 28
14637 18296 18297 28
14638 18296 18298 28
14639 18296 18299 28
14640 18296 18300 28
14641 18301 18302 28
14642 18301 18303 28
14643 18301 18304 28
14644 18301 18305 28
14645 18306 18307 28
14646 18306 18308 28
14647 18306 18309 28
14648 18306 18310 28
14649 18311 18312 28
14650 18311 18313 28
14651 18311 18314 28
14652 18311 18315 28
14653 18316 18317 28
14654 18316 18318 28
14655 18316 18319 28
14656 18316 18320 28
14657 18321 18322 28
14658 18321 18323 28
14659 18321 18324 28
14660 18321 18325 28
14661 18326 18327 28
14662 18326 18328 28
14663 18326 18329 28
14664 18326 18330 28
14665 18331 18332 28
14666 18331 18333 28
14667 18331 18334 28
14668 18331 18335 28
14669 18336 18337 28
14670 18336 18338 28
14671 18336 18339 28
14672 18336 18340 28
14673 18341 18342 28
14674 18341 18343 28
14675 18341 18344 28
14676 18341 18345 28
14677 18346 18347 28
14678 18346 18348 28
14679 18346 18349 28
14680 18346 18350 28
14681 18351 18352 28
14682 18351 18353 28
14683 18351 18354 28
14684 18351 18355 28
14685 18356 18357 28
14686 18356 18358 28
14687 18356 18359 28
14688 18356 18360 28
14689 18361 18362 28
14690 18361 18363 28
14691 18361 18364 28
14692 18361 18365 28
14693 18366 18367 28
14694 18366 18368 28
14695 18366 18369 28
14696 18366 18370 28
14697 18371 18372 28
14698 18371 18373 28
14699 18371 18374 28
14700 18371 18375 28
14701 18376 18377 28
14702 18376 18378 28
14703 18376 18379 28
14704 18376 18380 28
14705 18381 18382 28
14706 18381 18383 28
14707 18381 18384 28
14708 18381 18385 28
14709 18386 18387 28
14710 18386 18388 28
14711 18386 18389 28
14712 18386 18390 28
14713 18391 18392 28
14714 18391 18393 28
14715 18391 18394 28
14716 18391 18395 28
14717 18396 18397 28
14718 18396 18398 28
14719 18396 18399 28
14720 18396 18400 28
14721 18401 18402 28
14722 18401 18403 28
14723 18401 18404 28
14724 18401 18405 28
14725 18406 18407 28
14726 18406 18408 28
14727 18406 18409 28
14728 18406 18410 28
14729 18411 18412 28
14730 18411 18413 28
14731 18411 18414 28
14732 18411 18415 28
14733 18416 18417 28
14734 18416 18418 28
14735 18416 18419 28
14736 18416 18420 28
14737 18421 18422 28
14738 18421 18423 28
14739 18421 18424 28
14740 18421 18425 28
14741 18426 18427 28
14742 18426 18428 28
14743 18426 18429 28
14744 18426 18430 28
14745 18431 18432 28
14746 18431 18433 28
14747 18431 18434 28
14748 18431 18435 28
14749 18436 18437 28
14750 18436 18438 28
14751 18436 18439 28
14752 18436 18440 28
14753 18441 18442 28
14754 18441 18443 28
14755 18441 18444 28
14756 18441 18445 28
14757 18446 18447 28
14758 18446 18448 28
14759 18446 18449 28
14760 18446 18450 28
14761 18451 18452 28
14762 18451 18453 28
14763 18451 18454 28
14764 18451 18455 28
14765 18456 18457 28
14766 18456 18458 28
14767 18456 18459 28
14768 18456 18460 28
14769 18461 18462 28
14770 18461 18463 28
14771 18461 18464 28
14772 18461 18465 28
14773 18466 18467 28
14774 18466 18468 28
14775 18466 18469 28
14776 18466 18470 28
14777 18471 18472 28
14778 18471 18473 28
14779 18471 18474 28
14780 18471 18475 28
14781 18476 18477 28
14782 18476 18478 28
14783 18476 18479 28
14784 18476 18480 28
14785 18481 18482 28
14786 18481 18483 28
14787 18481 18484 28
14788 18481 18485 28
14789 18486 18487 28
14790 18486 18488 28
14791 18486 18489 28
14792 18486 18490 28
14793 18491 18492 28
14794 18491 18493 28
14795 18491 18494 28
14796 18491 18495 28
14797 18496 18497 28
14798 18496 18498 28
14799 18496 18499 28
14800 18496 18500 28
14801 18501 18502 28
14802 18501 18503 28
14803 18501 18504 28
14804 18501 18505 28
14805 18506 18507 28
14806 18506 18508 28
14807 18506 18509 28
14808 18506 18510 28
14809 18511 18512 28
14810 18511 18513 28
14811 18511 18514 28
14812 18511 18515 28
14813 18516 18517 28
14814 18516 18518 28
14815 18516 18519 28
14816 18516 18520 28
14817 18521 18522 28
14818 18521 18523 28
14819 18521 18524 28
14820 18521 18525 28
14821 18526 18527 28
14822 18526 18528 28
14823 18526 18529 28
14824 18526 18530 28
14825 18531 18532 28
14826 18531 18533 28
14827 18531 18534 28
14828 18531 18535 28
14829 18536 18537 28
14830 18536 18538 28
14831 18536 18539 28
14832 18536 18540 28
14833 18541 18542 28
14834 18541 18543 28
14835 18541 18544 28
14836 18541 18545 28
14837 18546 18547 28
14838 18546 18548 28
14839 18546 18549 28
14840 18546 18550 28
14841 18551 18552 28
14842 18551 18553 28
14843 18551 18554 28
14844 18551 18555 28
14845 18556 18557 28
14846 18556 18558 28
14847 18556 18559 28
14848 18556 18560 28
14849 18561 18562 28
14850 18561 18563 28
14851 18561 18564 28
14852 18561 18565 28
14853 18566 18567 28
14854 18566 18568 28
14855 18566 18569 28
14856 18566 18570 28
14857 18571 18572 28
14858 18571 18573 28
14859 18571 18574 28
14860 18571 18575 28
14861 18576 18577 28
14862 18576 18578 28
14863 18576 18579 28
14864 18576 18580 28
14865 18581 18582 28
14866 18581 18583 28
14867 18581 18584 28
14868 18581 18585 28
14869 18586 18587 28
14870 18586 18588 28
14871 18586 18589 28
14872 18586 18590 28
14873 18591 18592 28
14874 18591 18593 28
14875 18591 18594 28
14876 18591 18595 28
14877 18596 18597 28
14878 18596 18598 28
14879 18596 18599 28
14880 18596 18600 28
14881 18601 18602 28
14882 18601 18603 28
14883 18601 18604 28
14884 18601 18605 28
14885 18606 18607 28
14886 18606 18608 28
14887 18606 18609 28
14888 18606 18610 28
14889 18611 18612 28
14890 18611 18613 28
14891 18611 18614 28
14892 18611 18615 28
14893 18616 18617 28
14894 18616 18618 28
14895 18616 18619 28
14896 18616 18620 28
14897 18621 18622 28
14898 18621 18623 28
14899 18621 18624 28
14900 18621 18625 28
14901 18626 18627 28
14902 18626 18628 28
14903 18626 18629 28
14904 18626 18630 28
14905 18631 18632 28
14906 18631 18633 28
14907 18631 18634 28
14908 18631 18635 28
14909 18636 18637 28
14910 18636 18638 28
14911 18636 18639 28
14912 18636 18640 28
14913 18641 18642 28
14914 18641 18643 28
14915 18641 18644 28
14916 18641 18645 28
14917 18646 18647 28
14918 18646 18648 28
14919 18646 18649 28
14920 18646 18650 28
14921 18651 18652 28
14922 18651 18653 28
14923 18651 18654 28
14924 18651 18655 28
14925 18656 18657 28
14926 18656 18658 28
14927 18656 18659 28
14928 18656 18660 28
14929 18661 18662 28
14930 18661 18663 28
14931 18661 18664 28
14932 18661 18665 28
14933 18666 18667 28
14934 18666 18668 28
14935 18666 18669 28
14936 18666 18670 28
14937 18671 18672 28
14938 18671 18673 28
14939 18671 18674 28
14940 18671 18675 28
14941 18676 18677 28
14942 18676 18678 28
14943 18676 18679 28
14944 18676 18680 28
14945 18681 18682 28
14946 18681 18683 28
14947 18681 18684 28
14948 18681 18685 28
14949 18686 18687 28
14950 18686 18688 28
14951 18686 18689 28
14952 18686 18690 28
14953 18691 18692 28
14954 18691 18693 28
14955 18691 18694 28
14956 18691 18695 28
14957 18696 18697 28
14958 18696 18698 28
14959 18696 18699 28
14960 18696 18700 28
14961 18701 18702 28
14962 18701 18703 28
14963 18701 18704 28
14964 18701 18705 28
14965 18706 18707 28
14966 18706 18708 28
14967 18706 18709 28
14968 18706 18710 28
14969 18711 18712 28
14970 18711 18713 28
14971 18711 18714 28
14972 18711 18715 28
14973 18716 18717 28
14974 18716 18718 28
14975 18716 18719 28
14976 18716 18720 28
14977 18721 18722 28
14978 18721 18723 28
14979 18721 18724 28
14980 18721 18725 28
14981 18726 18727 28
14982 18726 18728 28
14983 18726 18729 28
14984 18726 18730 28
14985 18731 18732 28
14986 18731 18733 28
14987 18731 18734 28
14988 18731 18735 28
14989 18736 18737 28
14990 18736 18738 28
14991 18736 18739 28
14992 18736 18740 28
14993 18741 18742 28
14994 18741 18743 28
14995 18741 18744 28
14996 18741 18745 28
14997 18746 18747 28
14998 18746 18748 28
14999 18746 18749 28
15000 18746 18750 28
15001 18751 18752 28
15002 18751 18753 28
15003 18751 18754 28
15004 18751 18755 28
15005 18756 18757 28
15006 18756 18758 28
15007 18756 18759 28
15008 18756 18760 28
15009 18761 18762 28
15010 18761 18763 28
15011 18761 18764 28
15012 18761 18765 28
15013 18766 18767 28
15014 18766 18768 28
15015 18766 18769 28
15016 18766 18770 28
15017 18771 18772 28
15018 18771 18773 28
15019 18771 18774 28
15020 18771 18775 28
15021 18776 18777 28
15022 18776 18778 28
15023 18776 18779 28
15024 18776 18780 28
15025 18781 18782 28
15026 18781 18783 28
15027 18781 18784 28
15028 18781 18785 28
15029 18786 18787 28
15030 18786 18788 28
15031 18786 18789 28
15032 18786 18790 28
15033 18791 18792 28
15034 18791 18793 28
15035 18791 18794 28
15036 18791 18795 28
15037 18796 18797 28
15038 18796 18798 28
15039 18796 18799 28
15040 18796 18800 28
15041 18801 18802 28
15042 18801 18803 28
15043 18801 18804 28
15044 18801 18805 28
15045 18806 18807 28
15046 18806 18808 28
15047 18806 18809 28
15048 18806 18810 28
15049 18811 18812 28
15050 18811 18813 28
15051 18811 18814 28
15052 18811 18815 28
15053 18816 18817 28
15054 18816 18818 28
15055 18816 18819 28
15056 18816 18820 28
15057 18821 18822 28
15058 18821 18823 28
15059 18821 18824 28
15060 18821 18825 28
15061 18826 18827 28
15062 18826 18828 28
15063 18826 18829 28
15064 18826 18830 28
15065 18831 18832 28
15066 18831 18833 28
15067 18831 18834 28
15068 18831 18835 28
15069 18836 18837 28
15070 18836 18838 28
15071 18836 18839 28
15072 18836 18840 28
15073 18841 18842 28
15074 18841 18843 28
15075 18841 18844 28
15076 18841 18845 28
15077 18846 18847 28
15078 18846 18848 28
15079 18846 18849 28
15080 18846 18850 28
15081 18851 18852 28
15082 18851 18853 28
15083 18851 18854 28
15084 18851 18855 28
15085 18856 18857 28
15086 18856 18858 28
15087 18856 18859 28
15088 18856 18860 28
15089 18861 18862 28
15090 18861 18863 28
15091 18861 18864 28
15092 18861 18865 28
15093 18866 18867 28
15094 18866 18868 28
15095 18866 18869 28
15096 18866 18870 28
15097 18871 18872 28
15098 18871 18873 28
15099 18871 18874 28
15100 18871 18875 28
15101 18876 18877 28
15102 18876 18878 28
15103 18876 18879 28
15104 18876 18880 28
15105 18881 18882 28
15106 18881 18883 28
15107 18881 18884 28
15108 18881 18885 28
15109 18886 18887 28
15110 18886 18888 28
15111 18886 18889 28
15112 18886 18890 28
15113 18891 18892 28
15114 18891 18893 28
15115 18891 18894 28
15116 18891 18895 28
15117 18896 18897 28
15118 18896 18898 28
15119 18896 18899 28
15120 18896 18900 28
15121 18901 18902 28
15122 18901 18903 28
15123 18901 18904 28
15124 18901 18905 28
15125 18906 18907 28
15126 18906 18908 28
15127 18906 18909 28
15128 18906 18910 28
15129 18911 18912 28
15130 18911 18913 28
15131 18911 18914 28
15132 18911 18915 28
15133 18916 18917 28
15134 18916 18918 28
15135 18916 18919 28
15136 18916 18920 28
15137 18921 18922 28
15138 18921 18923 28
15139 18921 18924 28
15140 18921 18925 28
15141 18926 18927 28
15142 18926 18928 28
15143 18926 18929 28
15144 18926 18930 28
15145 18931 18932 28
15146 18931 18933 28
15147 18931 18934 28
15148 18931 18935 28
15149 18936 18937 28
15150 18936 18938 28
15151 18936 18939 28
15152 18936 18940 28
15153 18941 18942 28
15154 18941 18943 28
15155 18941 18944 28
15156 18941 18945 28
15157 18946 18947 28
15158 18946 18948 28
15159 18946 18949 28
15160 18946 18950 28
15161 18951 18952 28
15162 18951 18953 28
15163 18951 18954 28
15164 18951 18955 28
15165 18956 18957 28
15166 18956 18958 28
15167 18956 18959 28
15168 18956 18960 28
15169 18961 18962 28
15170 18961 18963 28
15171 18961 18964 28
15172 18961 18965 28
15173 18966 18967 28
15174 18966 18968 28
15175 18966 18969 28
15176 18966 18970 28
15177 18971 18972 28
15178 18971 18973 28
15179 18971 18974 28
15180 18971 18975 28
15181 18976 18977 28
15182 18976 18978 28
15183 18976 18979 28
15184 18976 18980 28
15185 18981 18982 28
15186 18981 18983 28
15187 18981 18984 28
15188 18981 18985 28
15189 18986 18987 28
15190 18986 18988 28
15191 18986 18989 28
15192 18986 18990 28
15193 18991 18992 28
15194 18991 18993 28
15195 18991 18994 28
15196 18991 18995 28
15197 18996 18997 28
15198 18996 18998 28
15199 18996 18999 28
15200 18996 19000 28
15201 19001 19002 28
15202 19001 19003 28
15203 19001 19004 28
15204 19001 19005 28
15205 19006 19007 28
15206 19006 19008 28
15207 19006 19009 28
15208 19006 19010 28
15209 19011 19012 28
15210 19011 19013 28
15211 19011 19014 28
15212 19011 19015 28
15213 19016 19017 28
15214 19016 19018 28
15215 19016 19019 28
15216 19016 19020 28
15217 19021 19022 28
15218 19021 19023 28
15219 19021 19024 28
15220 19021 19025 28
15221 19026 19027 28
15222 19026 19028 28
15223 19026 19029 28
15224 19026 19030 28
15225 19031 19032 28
15226 19031 19033 28
15227 19031 19034 28
15228 19031 19035 28
15229 19036 19037 28
15230 19036 19038 28
15231 19036 19039 28
15232 19036 19040 28
15233 19041 19042 28
15234 19041 19043 28
15235 19041 19044 28
15236 19041 19045 28
15237 19046 19047 28
15238 19046 19048 28
15239 19046 19049 28
15240 19046 19050 28
15241 19051 19052 28
15242 19051 19053 28
15243 19051 19054 28
15244 19051 19055 28
15245 19056 19057 28
15246 19056 19058 28
15247 19056 19059 28
15248 19056 19060 28
15249 19061 19062 28
15250 19061 19063 28
15251 19061 19064 28
15252 19061 19065 28
15253 19066 19067 28
15254 19066 19068 28
15255 19066 19069 28
15256 19066 19070 28
15257 19071 19072 28
15258 19071 19073 28
15259 19071 19074 28
15260 19071 19075 28
15261 19076 19077 28
15262 19076 19078 28
15263 19076 19079 28
15264 19076 19080 28
15265 19081 19082 28
15266 19081 19083 28
15267 19081 19084 28
15268 19081 19085 28
15269 19086 19087 28
15270 19086 19088 28
15271 19086 19089 28
15272 19086 19090 28
15273 19091 19092 28
15274 19091 19093 28
15275 19091 19094 28
15276 19091 19095 28
15277 19096 19097 28
15278 19096 19098 28
15279 19096 19099 28
15280 19096 19100 28
15281 19101 19102 28
15282 19101 19103 28
15283 19101 19104 28
15284 19101 19105 28
15285 19106 19107 28
15286 19106 19108 28
15287 19106 19109 28
15288 19106 19110 28
15289 19111 19112 28
15290 19111 19113 28
15291 19111 19114 28
15292 19111 19115 28
15293 19116 19117 28
15294 19116 19118 28
15295 19116 19119 28
15296 19116 19120 28
15297 19121 19122 28
15298 19121 19123 28
15299 19121 19124 28
15300 19121 19125 28
15301 19126 19127 28
15302 19126 19128 28
15303 19126 19129 28
15304 19126 19130 28
15305 19131 19132 28
15306 19131 19133 28
15307 19131 19134 28
15308 19131 19135 28
15309 19136 19137 28
15310 19136 19138 28
15311 19136 19139 28
15312 19136 19140 28
15313 19141 19142 28
15314 19141 19143 28
15315 19141 19144 28
15316 19141 19145 28
15317 19146 19147 28
15318 19146 19148 28
15319 19146 19149 28
15320 19146 19150 28
15321 19151 19152 28
15322 19151 19153 28
15323 19151 19154 28
15324 19151 19155 28
15325 19156 19157 28
15326 19156 19158 28
15327 19156 19159 28
15328 19156 19160 28
15329 19161 19162 28
15330 19161 19163 28
15331 19161 19164 28
15332 19161 19165 28
15333 19166 19167 28
15334 19166 19168 28
15335 19166 19169 28
15336 19166 19170 28
15337 19171 19172 28
15338 19171 19173 28
15339 19171 19174 28
15340 19171 19175 28
15341 19176 19177 28
15342 19176 19178 28
15343 19176 19179 28
15344 19176 19180 28
15345 19181 19182 28
15346 19181 19183 28
15347 19181 19184 28
15348 19181 19185 28
15349 19186 19187 28
15350 19186 19188 28
15351 19186 19189 28
15352 19186 19190 28
15353 19191 19192 28
15354 19191 19193 28
15355 19191 19194 28
15356 19191 19195 28
15357 19196 19197 28
15358 19196 19198 28
15359 19196 19199 28
15360 19196 19200 28
15361 19201 19202 28
15362 19201 19203 28
15363 19201 19204 28
15364 19201 19205 28
15365 19206 19207 28
15366 19206 19208 28
15367 19206 19209 28
15368 19206 19210 28
15369 19211 19212 28
15370 19211 19213 28
15371 19211 19214 28
15372 19211 19215 28
15373 19216 19217 28
15374 19216 19218 28
15375 19216 19219 28
15376 19216 19220 28
15377 19221 19222 28
15378 19221 19223 28
15379 19221 19224 28
15380 19221 19225 28
15381 19226 19227 28
15382 19226 19228 28
15383 19226 19229 28
15384 19226 19230 28
15385 19231 19232 28
15386 19231 19233 28
15387 19231 19234 28
15388 19231 19235 28
15389 19236 19237 28
15390 19236 19238 28
15391 19236 19239 28
15392 19236 19240 28
15393 19241 19242 28
15394 19241 19243 28
15395 19241 19244 28
15396 19241 19245 28
15397 19246 19247 28
15398 19246 19248 28
15399 19246 19249 28
15400 19246 19250 28
15401 19251 19252 28
15402 19251 19253 28
15403 19251 19254 28
15404 19251 19255 28
15405 19256 19257 28
15406 19256 19258 28
15407 19256 19259 28
15408 19256 19260 28
15409 19261 19262 28
15410 19261 19263 28
15411 19261 19264 28
15412 19261 19265 28
15413 19266 19267 28
15414 19266 19268 28
15415 19266 19269 28
15416 19266 19270 28
15417 19271 19272 28
15418 19271 19273 28
15419 19271 19274 28
15420 19271 19275 28
15421 19276 19277 28
15422 19276 19278 28
15423 19276 19279 28
15424 19276 19280 28
15425 19281 19282 28
15426 19281 19283 28
15427 19281 19284 28
15428 19281 19285 28
15429 19286 19287 28
15430 19286 19288 28
15431 19286 19289 28
15432 19286 19290 28
15433 19291 19292 28
15434 19291 19293 28
15435 19291 19294 28
15436 19291 19295 28
15437 19296 19297 28
15438 19296 19298 28
15439 19296 19299 28
15440 19296 19300 28
15441 19301 19302 28
15442 19301 19303 28
15443 19301 19304 28
15444 19301 19305 28
15445 19306 19307 28
15446 19306 19308 28
15447 19306 19309 28
15448 19306 19310 28
15449 19311 19312 28
15450 19311 19313 28
15451 19311 19314 28
15452 19311 19315 28
15453 19316 19317 28
15454 19316 19318 28
15455 19316 19319 28
15456 19316 19320 28
15457 19321 19322 28
15458 19321 19323 28
15459 19321 19324 28
15460 19321 19325 28
15461 19326 19327 28
15462 19326 19328 28
15463 19326 19329 28
15464 19326 19330 28
15465 19331 19332 28
15466 19331 19333 28
15467 19331 19334 28
15468 19331 19335 28
15469 19336 19337 28
15470 19336 19338 28
15471 19336 19339 28
15472 19336 19340 28
15473 19341 19342 28
15474 19341 19343 28
15475 19341 19344 28
15476 19341 19345 28
15477 19346 19347 28
15478 19346 19348 28
15479 19346 19349 28
15480 19346 19350 28
15481 19351 19352 28
15482 19351 19353 28
15483 19351 19354 28
15484 19351 19355 28
15485 19356 19357 28
15486 19356 19358 28
15487 19356 19359 28
15488 19356 19360 28
15489 19361 19362 28
15490 19361 19363 28
15491 19361 19364 28
15492 19361 19365 28
15493 19366 19367 28
15494 19366 19368 28
15495 19366 19369 28
15496 19366 19370 28
15497 19371 19372 28
15498 19371 19373 28
15499 19371 19374 28
15500 19371 19375 28
15501 19376 19377 28
15502 19376 19378 28
15503 19376 19379 28
15504 19376 19380 28
15505 19381 19382 28
15506 19381 19383 28
15507 19381 19384 28
15508 19381 19385 28
15509 19386 19387 28
15510 19386 19388 28
15511 19386 19389 28
15512 19386 19390 28
15513 19391 19392 28
15514 19391 19393 28
15515 19391 19394 28
15516 19391 19395 28
15517 19396 19397 28
15518 19396 19398 28
15519 19396 19399 28
15520 19396 19400 28
15521 19401 19402 28
15522 19401 19403 28
15523 19401 19404 28
15524 19401 19405 28
15525 19406 19407 28
15526 19406 19408 28
15527 19406 19409 28
15528 19406 19410 28
15529 19411 19412 28
15530 19411 19413 28
15531 19411 19414 28
15532 19411 19415 28
15533 19416 19417 28
15534 19416 19418 28
15535 19416 19419 28
15536 19416 19420 28
15537 19421 19422 28
15538 19421 19423 28
15539 19421 19424 28
15540 19421 19425 28
15541 19426 19427 28
15542 19426 19428 28
15543 19426 19429 28
15544 19426 19430 28
15545 19431 19432 28
15546 19431 19433 28
15547 19431 19434 28
15548 19431 19435 28
15549 19436 19437 28
15550 19436 19438 28
15551 19436 19439 28
15552 19436 19440 28
15553 19441 19442 28
15554 19441 19443 28
15555 19441 19444 28
15556 19441 19445 28
15557 19446 19447 28
15558 19446 19448 28
15559 19446 19449 28
15560 19446 19450 28
15561 19451 19452 28
15562 19451 19453 28
15563 19451 19454 28
15564 19451 19455 28
15565 19456 19457 28
15566 19456 19458 28
15567 19456 19459 28
15568 19456 19460 28
15569 19461 19462 28
15570 19461 19463 28
15571 19461 19464 28
15572 19461 19465 28
15573 19466 19467 28
15574 19466 19468 28
15575 19466 19469 28
15576 19466 19470 28
15577 19471 19472 28
15578 19471 19473 28
15579 19471 19474 28
15580 19471 19475 28
15581 19476 19477 28
15582 19476 19478 28
15583 19476 19479 28
15584 19476 19480 28
15585 19481 19482 28
15586 19481 19483 28
15587 19481 19484 28
15588 19481 19485 28
15589 19486 19487 28
15590 19486 19488 28
15591 19486 19489 28
15592 19486 19490 28
15593 19491 19492 28
15594 19491 19493 28
15595 19491 19494 28
15596 19491 19495 28
15597 19496 19497 28
15598 19496 19498 28
15599 19496 19499 28
15600 19496 19500 28
15601 19501 19502 28
15602 19501 19503 28
15603 19501 19504 28
15604 19501 19505 28
15605 19506 19507 28
15606 19506 19508 28
15607 19506 19509 28
15608 19506 19510 28
15609 19511 19512 28
15610 19511 19513 28
15611 19511 19514 28
15612 19511 19515 28
15613 19516 19517 28
15614 19516 19518 28
15615 19516 19519 28
15616 19516 19520 28
15617 19521 19522 28
15618 19521 19523 28
15619 19521 19524 28
15620 19521 19525 28
15621 19526 19527 28
15622 19526 19528 28
15623 19526 19529 28
15624 19526 19530 28
15625 19531 19532 28
15626 19531 19533 28
15627 19531 19534 28
15628 19531 19535 28
15629 19536 19537 28
15630 19536 19538 28
15631 19536 19539 28
15632 19536 19540 28
15633 19541 19542 28
15634 19541 19543 28
15635 19541 19544 28
15636 19541 19545 28
15637 19546 19547 28
15638 19546 19548 28
15639 19546 19549 28
15640 19546 19550 28
15641 19551 19552 28
15642 19551 19553 28
15643 19551 19554 28
15644 19551 19555 28
15645 19556 19557 28
15646 19556 19558 28
15647 19556 19559 28
15648 19556 19560 28
15649 19561 19562 28
15650 19561 19563 28
15651 19561 19564 28
15652 19561 19565 28
15653 19566 19567 28
15654 19566 19568 28
15655 19566 19569 28
15656 19566 19570 28
15657 19571 19572 28
15658 19571 19573 28
15659 19571 19574 28
15660 19571 19575 28
15661 19576 19577 28
15662 19576 19578 28
15663 19576 19579 28
15664 19576 19580 28
15665 19581 19582 28
15666 19581 19583 28
15667 19581 19584 28
15668 19581 19585 28
15669 19586 19587 28
15670 19586 19588 28
15671 19586 19589 28
15672 19586 19590 28
15673 19591 19592 28
15674 19591 19593 28
15675 19591 19594 28
15676 19591 19595 28
15677 19596 19597 28
15678 19596 19598 28
15679 19596 19599 28
15680 19596 19600 28
15681 19601 19602 28
15682 19601 19603 28
15683 19601 19604 28
15684 19601 19605 28
15685 19606 19607 28
15686 19606 19608 28
15687 19606 19609 28
15688 19606 19610 28
15689 19611 19612 28
15690 19611 19613 28
15691 19611 19614 28
15692 19611 19615 28
15693 19616 19617 28
15694 19616 19618 28
15695 19616 19619 28
15696 19616 19620 28
15697 19621 19622 28
15698 19621 19623 28
15699 19621 19624 28
15700 19621 19625 28
15701 19626 19627 28
15702 19626 19628 28
15703 19626 19629 28
15704 19626 19630 28
15705 19631 19632 28
15706 19631 19633 28
15707 19631 19634 28
15708 19631 19635 28
15709 19636 19637 28
15710 19636 19638 28
15711 19636 19639 28
15712 19636 19640 28
15713 19641 19642 28
15714 19641 19643 28
15715 19641 19644 28
15716 19641 19645 28
15717 19646 19647 28
15718 19646 19648 28
15719 19646 19649 28
15720 19646 19650 28
15721 19651 19652 28
15722 19651 19653 28
15723 19651 19654 28
15724 19651 19655 28
15725 19656 19657 28
15726 19656 19658 28
15727 19656 19659 28
15728 19656 19660 28
15729 19661 19662 28
15730 19661 19663 28
15731 19661 19664 28
15732 19661 19665 28
15733 19666 19667 28
15734 19666 19668 28
15735 19666 19669 28
15736 19666 19670 28
15737 19671 19672 28
15738 19671 19673 28
15739 19671 19674 28
15740 19671 19675 28
15741 19676 19677 28
15742 19676 19678 28
15743 19676 19679 28
15744 19676 19680 28
15745 19681 19682 28
15746 19681 19683 28
15747 19681 19684 28
15748 19681 19685 28
15749 19686 19687 28
15750 19686 19688 28
15751 19686 19689 28
15752 19686 19690 28
15753 19691 19692 28
15754 19691 19693 28
15755 19691 19694 28
15756 19691 19695 28
15757 19696 19697 28
15758 19696 19698 28
15759 19696 19699 28
15760 19696 19700 28
15761 19701 19702 28
15762 19701 19703 28
15763 19701 19704 28
15764 19701 19705 28
15765 19706 19707 28
15766 19706 19708 28
15767 19706 19709 28
15768 19706 19710 28
15769 19711 19712 28
15770 19711 19713 28
15771 19711 19714 28
15772 19711 19715 28
15773 19716 19717 28
15774 19716 19718 28
15775 19716 19719 28
15776 19716 19720 28
15777 19721 19722 28
15778 19721 19723 28
15779 19721 19724 28
15780 19721 19725 28
15781 19726 19727 28
15782 19726 19728 28
15783 19726 19729 28
15784 19726 19730 28
15785 19731 19732 28
15786 19731 19733 28
15787 19731 19734 28
15788 19731 19735 28
15789 19736 19737 28
15790 19736 19738 28
15791 19736 19739 28
15792 19736 19740 28
15793 19741 19742 28
15794 19741 19743 28
15795 19741 19744 28
15796 19741 19745 28
15797 19746 19747 28
15798 19746 19748 28
15799 19746 19749 28
15800 19746 19750 28
15801 19751 19752 28
15802 19751 19753 28
15803 19751 19754 28
15804 19751 19755 28
15805 19756 19757 28
15806 19756 19758 28
15807 19756 19759 28
15808 19756 19760 28
15809 19761 19762 28
15810 19761 19763 28
15811 19761 19764 28
15812 19761 19765 28
15813 19766 19767 28
15814 19766 19768 28
15815 19766 19769 28
15816 19766 19770 28
15817 19771 19772 28
15818 19771 19773 28
15819 19771 19774 28
15820 19771 19775 28
15821 19776 19777 28
15822 19776 19778 28
15823 19776 19779 28
15824 19776 19780 28
15825 19781 19782 28
15826 19781 19783 28
15827 19781 19784 28
15828 19781 19785 28
15829 19786 19787 28
15830 19786 19788 28
15831 19786 19789 28
15832 19786 19790 28
15833 19791 19792 28
15834 19791 19793 28
15835 19791 19794 28
15836 19791 19795 28
15837 19796 19797 28
15838 19796 19798 28
15839 19796 19799 28
15840 19796 19800 28
15841 19801 19802 28
15842 19801 19803 28
15843 19801 19804 28
15844 19801 19805 28
15845 19806 19807 28
15846 19806 19808 28
15847 19806 19809 28
15848 19806 19810 28
15849 19811 19812 28
15850 19811 19813 28
15851 19811 19814 28
15852 19811 19815 28
15853 19816 19817 28
15854 19816 19818 28
15855 19816 19819 28
15856 19816 19820 28
15857 19821 19822 28
15858 19821 19823 28
15859 19821 19824 28
15860 19821 19825 28
15861 19826 19827 28
15862 19826 19828 28
15863 19826 19829 28
15864 19826 19830 28
15865 19831 19832 28
15866 19831 19833 28
15867 19831 19834 28
15868 19831 19835 28
15869 19836 19837 28
15870 19836 19838 28
15871 19836 19839 28
15872 19836 19840 28
15873 19841 19842 28
15874 19841 19843 28
15875 19841 19844 28
15876 19841 19845 28
15877 19846 19847 28
15878 19846 19848 28
15879 19846 19849 28
15880 19846 19850 28
15881 19851 19852 28
15882 19851 19853 28
15883 19851 19854 28
15884 19851 19855 28
15885 19856 19857 28
15886 19856 19858 28
15887 19856 19859 28
15888 19856 19860 28
15889 19861 19862 28
15890 19861 19863 28
15891 19861 19864 28
15892 19861 19865 28
15893 19866 19867 28
15894 19866 19868 28
15895 19866 19869 28
15896 19866 19870 28
15897 19871 19872 28
15898 19871 19873 28
15899 19871 19874 28
15900 19871 19875 28
15901 19876 19877 28
15902 19876 19878 28
15903 19876 19879 28
15904 19876 19880 28
15905 19881 19882 28
15906 19881 19883 28
15907 19881 19884 28
15908 19881 19885 28
15909 19886 19887 28
15910 19886 19888 28
15911 19886 19889 28
15912 19886 19890 28
15913 19891 19892 28
15914 19891 19893 28
15915 19891 19894 28
15916 19891 19895 28
15917 19896 19897 28
15918 19896 19898 28
15919 19896 19899 28
15920 19896 19900 28
15921 19901 19902 28
15922 19901 19903 28
15923 19901 19904 28
15924 19901 19905 28
15925 19906 19907 28
15926 19906 19908 28
15927 19906 19909 28
15928 19906 19910 28
15929 19911 19912 28
15930 19911 19913 28
15931 19911 19914 28
15932 19911 19915 28
15933 19916 19917 28
15934 19916 19918 28
15935 19916 19919 28
15936 19916 19920 28
15937 19921 19922 28
15938 19921 19923 28
15939 19921 19924 28
15940 19921 19925 28
15941 19926 19927 28
15942 19926 19928 28
15943 19926 19929 28
15944 19926 19930 28
15945 19931 19932 28
15946 19931 19933 28
15947 19931 19934 28
15948 19931 19935 28
15949 19936 19937 28
15950 19936 19938 28
15951 19936 19939 28
15952 19936 19940 28
15953 19941 19942 28
15954 19941 19943 28
15955 19941 19944 28
15956 19941 19945 28
15957 19946 19947 28
15958 19946 19948 28
15959 19946 19949 28
15960 19946 19950 28
15961 19951 19952 28
15962 19951 19953 28
15963 19951 19954 28
15964 19951 19955 28
15965 19956 19957 28
15966 19956 19958 28
15967 19956 19959 28
15968 19956 19960 28
15969 19961 19962 28
15970 19961 19963 28
15971 19961 19964 28
15972 19961 19965 28
15973 19966 19967 28
15974 19966 19968 28
15975 19966 19969 28
15976 19966 19970 28
15977 19971 19972 28
15978 19971 19973 28
15979 19971 19974 28
15980 19971 19975 28
15981 19976 19977 28
15982 19976 19978 28
15983 19976 19979 28
15984 19976 19980 28
15985 19981 19982 28
15986 19981 19983 28
15987 19981 19984 28
15988 19981 19985 28
15989 19986 19987 28
15990 19986 19988 28
15991 19986 19989 28
15992 19986 19990 28
15993 19991 19992 28
15994 19991 19993 28
15995 19991 19994 28
15996 19991 19995 28
15997 19996 19997 28
15998 19996 19998 28
15999 19996 19999 28
16000 19996 20000 28
16001 20001 20002 28
16002 20001 20003 28
16003 20001 20004 28
16004 20001 20005 28
16005 20006 20007 28
16006 20006 20008 28
16007 20006 20009 28
16008 20006 20010 28
16009 20011 20012 28
16010 20011 20013 28
16011 20011 20014 28
16012 20011 20015 28
16013 20016 20017 28
16014 20016 20018 28
16015 20016 20019 28
16016 20016 20020 28
16017 20021 20022 28
16018 20021 20023 28
16019 20021 20024 28
16020 20021 20025 28
16021 20026 20027 28
16022 20026 20028 28
16023 20026 20029 28
16024 20026 20030 28
16025 20031 20032 28
16026 20031 20033 28
16027 20031 20034 28
16028 20031 20035 28
16029 20036 20037 28
16030 20036 20038 28
16031 20036 20039 28
16032 20036 20040 28
16033 20041 20042 28
16034 20041 20043 28
16035 20041 20044 28
16036 20041 20045 28
16037 20046 20047 28
16038 20046 20048 28
16039 20046 20049 28
16040 20046 20050 28
16041 20051 20052 28
16042 20051 20053 28
16043 20051 20054 28
16044 20051 20055 28
16045 20056 20057 28
16046 20056 20058 28
16047 20056 20059 28
16048 20056 20060 28
16049 20061 20062 28
16050 20061 20063 28
16051 20061 20064 28
16052 20061 20065 28
16053 20066 20067 28
16054 20066 20068 28
16055 20066 20069 28
16056 20066 20070 28
16057 20071 20072 28
16058 20071 20073 28
16059 20071 20074 28
16060 20071 20075 28
16061 20076 20077 28
16062 20076 20078 28
16063 20076 20079 28
16064 20076 20080 28
16065 20081 20082 28
16066 20081 20083 28
16067 20081 20084 28
16068 20081 20085 28
16069 20086 20087 28
16070 20086 20088 28
16071 20086 20089 28
16072 20086 20090 28
16073 20091 20092 28
16074 20091 20093 28
16075 20091 20094 28
16076 20091 20095 28
16077 20096 20097 28
16078 20096 20098 28
16079 20096 20099 28
16080 20096 20100 28
16081 20101 20102 28
16082 20101 20103 28
16083 20101 20104 28
16084 20101 20105 28
16085 20106 20107 28
16086 20106 20108 28
16087 20106 20109 28
16088 20106 20110 28
16089 20111 20112 28
16090 20111 20113 28
16091 20111 20114 28
16092 20111 20115 28
16093 20116 20117 28
16094 20116 20118 28
16095 20116 20119 28
16096 20116 20120 28
16097 20121 20122 28
16098 20121 20123 28
16099 20121 20124 28
16100 20121 20125 28
16101 20126 20127 28
16102 20126 20128 28
16103 20126 20129 28
16104 20126 20130 28
16105 20131 20132 28
16106 20131 20133 28
16107 20131 20134 28
16108 20131 20135 28
16109 20136 20137 28
16110 20136 20138 28
16111 20136 20139 28
16112 20136 20140 28
16113 20141 20142 28
16114 20141 20143 28
16115 20141 20144 28
16116 20141 20145 28
16117 20146 20147 28
16118 20146 20148 28
16119 20146 20149 28
16120 20146 20150 28
16121 20151 20152 28
16122 20151 20153 28
16123 20151 20154 28
16124 20151 20155 28
16125 20156 20157 28
16126 20156 20158 28
16127 20156 20159 28
16128 20156 20160 28
16129 20161 20162 28
16130 20161 20163 28
16131 20161 20164 28
16132 20161 20165 28
16133 20166 20167 28
16134 20166 20168 28
16135 20166 20169 28
16136 20166 20170 28
16137 20171 20172 28
16138 20171 20173 28
16139 20171 20174 28
16140 20171 20175 28
16141 20176 20177 28
16142 20176 20178 28
16143 20176 20179 28
16144 20176 20180 28
16145 20181 20182 28
16146 20181 20183 28
16147 20181 20184 28
16148 20181 20185 28
16149 20186 20187 28
16150 20186 20188 28
16151 20186 20189 28
16152 20186 20190 28
16153 20191 20192 28
16154 20191 20193 28
16155 20191 20194 28
16156 20191 20195 28
16157 20196 20197 28
16158 20196 20198 28
16159 20196 20199 28
16160 20196 20200 28
16161 20201 20202 28
16162 20201 20203 28
16163 20201 20204 28
16164 20201 20205 28
16165 20206 20207 28
16166 20206 20208 28
16167 20206 20209 28
16168 20206 20210 28
16169 20211 20212 28
16170 20211 20213 28
16171 20211 20214 28
16172 20211 20215 28
16173 20216 20217 28
16174 20216 20218 28
16175 20216 20219 28
16176 20216 20220 28
16177 20221 20222 28
16178 20221 20223 28
16179 20221 20224 28
16180 20221 20225 28
16181 20226 20227 28
16182 20226 20228 28
16183 20226 20229 28
16184 20226 20230 28
16185 20231 20232 28
16186 20231 20233 28
16187 20231 20234 28
16188 20231 20235 28
16189 20236 20237 28
16190 20236 20238 28
16191 20236 20239 28
16192 20236 20240 28
16193 20241 20242 28
16194 20241 20243 28
16195 20241 20244 28
16196 20241 20245 28
16197 20246 20247 28
16198 20246 20248 28
16199 20246 20249 28
16200 20246 20250 28
16201 20251 20252 28
16202 20251 20253 28
16203 20251 20254 28
16204 20251 20255 28
16205 20256 20257 28
16206 20256 20258 28
16207 20256 20259 28
16208 20256 20260 28
16209 20261 20262 28
16210 20261 20263 28
16211 20261 20264 28
16212 20261 20265 28
16213 20266 20267 28
16214 20266 20268 28
16215 20266 20269 28
16216 20266 20270 28
16217 20271 20272 28
16218 20271 20273 28
16219 20271 20274 28
16220 20271 20275 28
16221 20276 20277 28
16222 20276 20278 28
16223 20276 20279 28
16224 20276 20280 28
16225 20281 20282 28
16226 20281 20283 28
16227 20281 20284 28
16228 20281 20285 28
16229 20286 20287 28
16230 20286 20288 28
16231 20286 20289 28
16232 20286 20290 28
16233 20291 20292 28
16234 20291 20293 28
16235 20291 20294 28
16236 20291 20295 28
16237 20296 20297 28
16238 20296 20298 28
16239 20296 20299 28
16240 20296 20300 28
16241 20301 20302 28
16242 20301 20303 28
16243 20301 20304 28
16244 20301 20305 28
16245 20306 20307 28
16246 20306 20308 28
16247 20306 20309 28
16248 20306 20310 28
16249 20311 20312 28
16250 20311 20313 28
16251 20311 20314 28
16252 20311 20315 28
16253 20316 20317 28
16254 20316 20318 28
16255 20316 20319 28
16256 20316 20320 28
16257 20321 20322 28
16258 20321 20323 28
16259 20321 20324 28
16260 20321 20325 28
16261 20326 20327 28
16262 20326 20328 28
16263 20326 20329 28
16264 20326 20330 28
16265 20331 20332 28
16266 20331 20333 28
16267 20331 20334 28
16268 20331 20335 28
16269 20336 20337 28
16270 20336 20338 28
16271 20336 20339 28
16272 20336 20340 28
16273 20341 20342 28
16274 20341 20343 28
16275 20341 20344 28
16276 20341 20345 28
16277 20346 20347 28
16278 20346 20348 28
16279 20346 20349 28
16280 20346 20350 28
16281 20351 20352 28
16282 20351 20353 28
16283 20351 20354 28
16284 20351 20355 28
16285 20356 20357 28
16286 20356 20358 28
16287 20356 20359 28
16288 20356 20360 28
16289 20361 20362 28
16290 20361 20363 28
16291 20361 20364 28
16292 20361 20365 28
16293 20366 20367 28
16294 20366 20368 28
16295 20366 20369 28
16296 20366 20370 28
16297 20371 20372 28
16298 20371 20373 28
16299 20371 20374 28
16300 20371 20375 28
16301 20376 20377 28
16302 20376 20378 28
16303 20376 20379 28
16304 20376 20380 28
16305 20381 20382 28
16306 20381 20383 28
16307 20381 20384 28
16308 20381 20385 28
16309 20386 20387 28
16310 20386 20388 28
16311 20386 20389 28
16312 20386 20390 28
16313 20391 20392 28
16314 20391 20393 28
16315 20391 20394 28
16316 20391 20395 28
16317 20396 20397 28
16318 20396 20398 28
16319 20396 20399 28
16320 20396 20400 28
16321 20401 20402 28
16322 20401 20403 28
16323 20401 20404 28
16324 20401 20405 28
16325 20406 20407 28
16326 20406 20408 28
16327 20406 20409 28
16328 20406 20410 28
16329 20411 20412 28
16330 20411 20413 28
16331 20411 20414 28
16332 20411 20415 28
16333 20416 20417 28
16334 20416 20418 28
16335 20416 20419 28
16336 20416 20420 28
16337 20421 20422 28
16338 20421 20423 28
16339 20421 20424 28
16340 20421 20425 28
16341 20426 20427 28
16342 20426 20428 28
16343 20426 20429 28
16344 20426 20430 28
16345 20431 20432 28
16346 20431 20433 28
16347 20431 20434 28
16348 20431 20435 28
16349 20436 20437 28
16350 20436 20438 28
16351 20436 20439 28
16352 20436 20440 28
16353 20441 20442 28
16354 20441 20443 28
16355 20441 20444 28
16356 20441 20445 28
16357 20446 20447 28
16358 20446 20448 28
16359 20446 20449 28
16360 20446 20450 28
16361 20451 20452 28
16362 20451 20453 28
16363 20451 20454 28
16364 20451 20455 28
16365 20456 20457 28
16366 20456 20458 28
16367 20456 20459 28
16368 20456 20460 28
16369 20461 20462 28
16370 20461 20463 28
16371 20461 20464 28
16372 20461 20465 28
16373 20466 20467 28
16374 20466 20468 28
16375 20466 20469 28
16376 20466 20470 28
16377 20471 20472 28
16378 20471 20473 28
16379 20471 20474 28
16380 20471 20475 28
16381 20476 20477 28
16382 20476 20478 28
16383 20476 20479 28
16384 20476 20480 28
16385 20481 20482 28
16386 20481 20483 28
16387 20481 20484 28
16388 20481 20485 28
16389 20486 20487 28
16390 20486 20488 28
16391 20486 20489 28
16392 20486 20490 28
16393 20491 20492 28
16394 20491 20493 28
16395 20491 20494 28
16396 20491 20495 28
16397 20496 20497 28
16398 20496 20498 28
16399 20496 20499 28
16400 20496 20500 28
16401 20501 20502 28
16402 20501 20503 28
16403 20501 20504 28
16404 20501 20505 28
16405 20506 20507 28
16406 20506 20508 28
16407 20506 20509 28
16408 20506 20510 28
16409 20511 20512 28
16410 20511 20513 28
16411 20511 20514 28
16412 20511 20515 28
16413 20516 20517 28
16414 20516 20518 28
16415 20516 20519 28
16416 20516 20520 28
16417 20521 20522 28
16418 20521 20523 28
16419 20521 20524 28
16420 20521 20525 28
16421 20526 20527 28
16422 20526 20528 28
16423 20526 20529 28
16424 20526 20530 28
16425 20531 20532 28
16426 20531 20533 28
16427 20531 20534 28
16428 20531 20535 28
16429 20536 20537 28
16430 20536 20538 28
16431 20536 20539 28
16432 20536 20540 28
16433 20541 20542 28
16434 20541 20543 28
16435 20541 20544 28
16436 20541 20545 28
16437 20546 20547 28
16438 20546 20548 28
16439 20546 20549 28
16440 20546 20550 28
16441 20551 20552 28
16442 20551 20553 28
16443 20551 20554 28
16444 20551 20555 28
16445 20556 20557 28
16446 20556 20558 28
16447 20556 20559 28
16448 20556 20560 28
16449 20561 20562 28
16450 20561 20563 28
16451 20561 20564 28
16452 20561 20565 28
16453 20566 20567 28
16454 20566 20568 28
16455 20566 20569 28
16456 20566 20570 28
16457 20571 20572 28
16458 20571 20573 28
16459 20571 20574 28
16460 20571 20575 28
16461 20576 20577 28
16462 20576 20578 28
16463 20576 20579 28
16464 20576 20580 28
16465 20581 20582 28
16466 20581 20583 28
16467 20581 20584 28
16468 20581 20585 28
16469 20586 20587 28
16470 20586 20588 28
16471 20586 20589 28
16472 20586 20590 28
16473 20591 20592 28
16474 20591 20593 28
16475 20591 20594 28
16476 20591 20595 28
16477 20596 20597 28
16478 20596 20598 28
16479 20596 20599 28
16480 20596 20600 28
16481 20601 20602 28
16482 20601 20603 28
16483 20601 20604 28
16484 20601 20605 28
16485 20606 20607 28
16486 20606 20608 28
16487 20606 20609 28
16488 20606 20610 28
16489 20611 20612 28
16490 20611 20613 28
16491 20611 20614 28
16492 20611 20615 28
16493 20616 20617 28
16494 20616 20618 28
16495 20616 20619 28
16496 20616 20620 28
16497 20621 20622 28
16498 20621 20623 28
16499 20621 20624 28
16500 20621 20625 28
16501 20626 20627 28
16502 20626 20628 28
16503 20626 20629 28
16504 20626 20630 28
16505 20631 20632 28
16506 20631 20633 28
16507 20631 20634 28
16508 20631 20635 28
16509 20636 20637 28
16510 20636 20638 28
16511 20636 20639 28
16512 20636 20640 28
16513 20641 20642 28
16514 20641 20643 28
16515 20641 20644 28
16516 20641 20645 28
16517 20646 20647 28
16518 20646 20648 28
16519 20646 20649 28
16520 20646 20650 28
16521 20651 20652 28
16522 20651 20653 28
16523 20651 20654 28
16524 20651 20655 28
16525 20656 20657 28
16526 20656 20658 28
16527 20656 20659 28
16528 20656 20660 28
16529 20661 20662 28
16530 20661 20663 28
16531 20661 20664 28
16532 20661 20665 28
16533 20666 20667 28
16534 20666 20668 28
16535 20666 20669 28
16536 20666 20670 28
16537 20671 20672 28
16538 20671 20673 28
16539 20671 20674 28
16540 20671 20675 28
16541 20676 20677 28
16542 20676 20678 28
16543 20676 20679 28
16544 20676 20680 28
16545 20681 20682 28
16546 20681 20683 28
16547 20681 20684 28
16548 20681 20685 28
16549 20686 20687 28
16550 20686 20688 28
16551 20686 20689 28
16552 20686 20690 28
16553 20691 20692 28
16554 20691 20693 28
16555 20691 20694 28
16556 20691 20695 28
16557 20696 20697 28
16558 20696 20698 28
16559 20696 20699 28
16560 20696 20700 28
16561 20701 20702 28
16562 20701 20703 28
16563 20701 20704 28
16564 20701 20705 28
16565 20706 20707 28
16566 20706 20708 28
16567 20706 20709 28
16568 20706 20710 28
16569 20711 20712 28
16570 20711 20713 28
16571 20711 20714 28
16572 20711 20715 28
16573 20716 20717 28
16574 20716 20718 28
16575 20716 20719 28
16576 20716 20720 28
16577 20721 20722 28
16578 20721 20723 28
16579 20721 20724 28
16580 20721 20725 28
16581 20726 20727 28
16582 20726 20728 28
16583 20726 20729 28
16584 20726 20730 28
16585 20731 20732 28
16586 20731 20733 28
16587 20731 20734 28
16588 20731 20735 28
16589 20736 20737 28
16590 20736 20738 28
16591 20736 20739 28
16592 20736 20740 28
16593 20741 20742 28
16594 20741 20743 28
16595 20741 20744 28
16596 20741 20745 28
16597 20746 20747 28
16598 20746 20748 28
16599 20746 20749 28
16600 20746 20750 28
16601 20751 20752 28
16602 20751 20753 28
16603 20751 20754 28
16604 20751 20755 28
16605 20756 20757 28
16606 20756 20758 28
16607 20756 20759 28
16608 20756 20760 28
16609 20761 20762 28
16610 20761 20763 28
16611 20761 20764 28
16612 20761 20765 28
16613 20766 20767 28
16614 20766 20768 28
16615 20766 20769 28
16616 20766 20770 28
16617 20771 20772 28
16618 20771 20773 28
16619 20771 20774 28
16620 20771 20775 28
16621 20776 20777 28
16622 20776 20778 28
16623 20776 20779 28
16624 20776 20780 28
16625 20781 20782 28
16626 20781 20783 28
16627 20781 20784 28
16628 20781 20785 28
16629 20786 20787 28
16630 20786 20788 28
16631 20786 20789 28
16632 20786 20790 28
16633 20791 20792 28
16634 20791 20793 28
16635 20791 20794 28
16636 20791 20795 28
16637 20796 20797 28
16638 20796 20798 28
16639 20796 20799 28
16640 20796 20800 28
16641 20801 20802 28
16642 20801 20803 28
16643 20801 20804 28
16644 20801 20805 28
16645 20806 20807 28
16646 20806 20808 28
16647 20806 20809 28
16648 20806 20810 28
16649 20811 20812 28
16650 20811 20813 28
16651 20811 20814 28
16652 20811 20815 28
16653 20816 20817 28
16654 20816 20818 28
16655 20816 20819 28
16656 20816 20820 28
16657 20821 20822 28
16658 20821 20823 28
16659 20821 20824 28
16660 20821 20825 28
16661 20826 20827 28
16662 20826 20828 28
16663 20826 20829 28
16664 20826 20830 28
16665 20831 20832 28
16666 20831 20833 28
16667 20831 20834 28
16668 20831 20835 28
16669 20836 20837 28
16670 20836 20838 28
16671 20836 20839 28
16672 20836 20840 28
16673 20841 20842 28
16674 20841 20843 28
16675 20841 20844 28
16676 20841 20845 28
16677 20846 20847 28
16678 20846 20848 28
16679 20846 20849 28
16680 20846 20850 28
16681 20851 20852 28
16682 20851 20853 28
16683 20851 20854 28
16684 20851 20855 28
16685 20856 20857 28
16686 20856 20858 28
16687 20856 20859 28
16688 20856 20860 28
16689 20861 20862 28
16690 20861 20863 28
16691 20861 20864 28
16692 20861 20865 28
16693 20866 20867 28
16694 20866 20868 28
16695 20866 20869 28
16696 20866 20870 28
16697 20871 20872 28
16698 20871 20873 28
16699 20871 20874 28
16700 20871 20875 28
16701 20876 20877 28
16702 20876 20878 28
16703 20876 20879 28
16704 20876 20880 28
16705 20881 20882 28
16706 20881 20883 28
16707 20881 20884 28
16708 20881 20885 28
16709 20886 20887 28
16710 20886 20888 28
16711 20886 20889 28
16712 20886 20890 28
16713 20891 20892 28
16714 20891 20893 28
16715 20891 20894 28
16716 20891 20895 28
16717 20896 20897 28
16718 20896 20898 28
16719 20896 20899 28
16720 20896 20900 28
16721 20901 20902 28
16722 20901 20903 28
16723 20901 20904 28
16724 20901 20905 28
16725 20906 20907 28
16726 20906 20908 28
16727 20906 20909 28
16728 20906 20910 28
16729 20911 20912 28
16730 20911 20913 28
16731 20911 20914 28
16732 20911 20915 28
16733 20916 20917 28
16734 20916 20918 28
16735 20916 20919 28
16736 20916 20920 28
16737 20921 20922 28
16738 20921 20923 28
16739 20921 20924 28
16740 20921 20925 28
16741 20926 20927 28
16742 20926 20928 28
16743 20926 20929 28
16744 20926 20930 28
16745 20931 20932 28
16746 20931 20933 28
16747 20931 20934 28
16748 20931 20935 28
16749 20936 20937 28
16750 20936 20938 28
16751 20936 20939 28
16752 20936 20940 28
16753 20941 20942 28
16754 20941 20943 28
16755 20941 20944 28
16756 20941 20945 28
16757 20946 20947 28
16758 20946 20948 28
16759 20946 20949 28
16760 20946 20950 28
16761 20951 20952 28
16762 20951 20953 28
16763 20951 20954 28
16764 20951 20955 28
16765 20956 20957 28
16766 20956 20958 28
16767 20956 20959 28
16768 20956 20960 28
16769 20961 20962 28
16770 20961 20963 28
16771 20961 20964 28
16772 20961 20965 28
16773 20966 20967 28
16774 20966 20968 28
16775 20966 20969 28
16776 20966 20970 28
16777 20971 20972 28
16778 20971 20973 28
16779 20971 20974 28
16780 20971 20975 28
16781 20976 20977 28
16782 20976 20978 28
16783 20976 20979 28
16784 20976 20980 28
16785 20981 20982 28
16786 20981 20983 28
16787 20981 20984 28
16788 20981 20985 28
16789 20986 20987 28
16790 20986 20988 28
16791 20986 20989 28
16792 20986 20990 28
16793 20991 20992 28
16794 20991 20993 28
16795 20991 20994 28
16796 20991 20995 28
16797 20996 20997 28
16798 20996 20998 28
16799 20996 20999 28
16800 20996 21000 28
16801 21001 21002 28
16802 21001 21003 28
16803 21001 21004 28
16804 21001 21005 28
16805 21006 21007 28
16806 21006 21008 28
16807 21006 21009 28
16808 21006 21010 28
16809 21011 21012 28
16810 21011 21013 28
16811 21011 21014 28
16812 21011 21015 28
16813 21016 21017 28
16814 21016 21018 28
16815 21016 21019 28
16816 21016 21020 28
16817 21021 21022 28
16818 21021 21023 28
16819 21021 21024 28
16820 21021 21025 28
16821 21026 21027 28
16822 21026 21028 28
16823 21026 21029 28
16824 21026 21030 28
16825 21031 21032 28
16826 21031 21033 28
16827 21031 21034 28
16828 21031 21035 28
16829 21036 21037 28
16830 21036 21038 28
16831 21036 21039 28
16832 21036 21040 28
16833 21041 21042 28
16834 21041 21043 28
16835 21041 21044 28
16836 21041 21045 28
16837 21046 21047 28
16838 21046 21048 28
16839 21046 21049 28
16840 21046 21050 28
16841 21051 21052 28
16842 21051 21053 28
16843 21051 21054 28
16844 21051 21055 28
16845 21056 21057 28
16846 21056 21058 28
16847 21056 21059 28
16848 21056 21060 28
16849 21061 21062 28
16850 21061 21063 28
16851 21061 21064 28
16852 21061 21065 28
16853 21066 21067 28
16854 21066 21068 28
16855 21066 21069 28
16856 21066 21070 28
16857 21071 21072 28
16858 21071 21073 28
16859 21071 21074 28
16860 21071 21075 28
16861 21076 21077 28
16862 21076 21078 28
16863 21076 21079 28
16864 21076 21080 28
16865 21081 21082 28
16866 21081 21083 28
16867 21081 21084 28
16868 21081 21085 28
16869 21086 21087 28
16870 21086 21088 28
16871 21086 21089 28
16872 21086 21090 28
16873 21091 21092 28
16874 21091 21093 28
16875 21091 21094 28
16876 21091 21095 28
16877 21096 21097 28
16878 21096 21098 28
16879 21096 21099 28
16880 21096 21100 28
16881 21101 21102 28
16882 21101 21103 28
16883 21101 21104 28
16884 21101 21105 28
16885 21106 21107 28
16886 21106 21108 28
16887 21106 21109 28
16888 21106 21110 28
16889 21111 21112 28
16890 21111 21113 28
16891 21111 21114 28
16892 21111 21115 28
16893 21116 21117 28
16894 21116 21118 28
16895 21116 21119 28
16896 21116 21120 28
16897 21121 21122 28
16898 21121 21123 28
16899 21121 21124 28
16900 21121 21125 28
16901 21126 21127 28
16902 21126 21128 28
16903 21126 21129 28
16904 21126 21130 28
16905 21131 21132 28
16906 21131 21133 28
16907 21131 21134 28
16908 21131 21135 28
16909 21136 21137 28
16910 21136 21138 28
16911 21136 21139 28
16912 21136 21140 28
16913 21141 21142 28
16914 21141 21143 28
16915 21141 21144 28
16916 21141 21145 28
16917 21146 21147 28
16918 21146 21148 28
16919 21146 21149 28
16920 21146 21150 28
16921 21151 21152 28
16922 21151 21153 28
16923 21151 21154 28
16924 21151 21155 28
16925 21156 21157 28
16926 21156 21158 28
16927 21156 21159 28
16928 21156 21160 28
16929 21161 21162 28
16930 21161 21163 28
16931 21161 21164 28
16932 21161 21165 28
16933 21166 21167 28
16934 21166 21168 28
16935 21166 21169 28
16936 21166 21170 28
16937 21171 21172 28
16938 21171 21173 28
16939 21171 21174 28
16940 21171 21175 28
16941 21176 21177 28
16942 21176 21178 28
16943 21176 21179 28
16944 21176 21180 28
16945 21181 21182 28
16946 21181 21183 28
16947 21181 21184 28
16948 21181 21185 28
16949 21186 21187 28
16950 21186 21188 28
16951 21186 21189 28
16952 21186 21190 28
16953 21191 21192 28
16954 21191 21193 28
16955 21191 21194 28
16956 21191 21195 28
16957 21196 21197 28
16958 21196 21198 28
16959 21196 21199 28
16960 21196 21200 28
16961 21201 21202 28
16962 21201 21203 28
16963 21201 21204 28
16964 21201 21205 28
16965 21206 21207 28
16966 21206 21208 28
16967 21206 21209 28
16968 21206 21210 28
16969 21211 21212 28
16970 21211 21213 28
16971 21211 21214 28
16972 21211 21215 28
16973 21216 21217 28
16974 21216 21218 28
16975 21216 21219 28
16976 21216 21220 28
16977 21221 21222 28
16978 21221 21223 28
16979 21221 21224 28
16980 21221 21225 28
16981 21226 21227 28
16982 21226 21228 28
16983 21226 21229 28
16984 21226 21230 28
16985 21231 21232 28
16986 21231 21233 28
16987 21231 21234 28
16988 21231 21235 28
16989 21236 21237 28
16990 21236 21238 28
16991 21236 21239 28
16992 21236 21240 28
16993 21241 21242 28
16994 21241 21243 28
16995 21241 21244 28
16996 21241 21245 28
16997 21246 21247 28
16998 21246 21248 28
16999 21246 21249 28
17000 21246 21250 28
17001 21251 21252 28
17002 21251 21253 28
17003 21251 21254 28
17004 21251 21255 28
17005 21256 21257 28
17006 21256 21258 28
17007 21256 21259 28
17008 21256 21260 28
17009 21261 21262 28
17010 21261 21263 28
17011 21261 21264 28
17012 21261 21265 28
17013 21266 21267 28
17014 21266 21268 28
17015 21266 21269 28
17016 21266 21270 28
17017 21271 21272 28
17018 21271 21273 28
17019 21271 21274 28
17020 21271 21275 28
17021 21276 21277 28
17022 21276 21278 28
17023 21276 21279 28
17024 21276 21280 28
17025 21281 21282 28
17026 21281 21283 28
17027 21281 21284 28
17028 21281 21285 28
17029 21286 21287 28
17030 21286 21288 28
17031 21286 21289 28
17032 21286 21290 28
17033 21291 21292 28
17034 21291 21293 28
17035 21291 21294 28
17036 21291 21295 28
17037 21296 21297 28
17038 21296 21298 28
17039 21296 21299 28
17040 21296 21300 28
17041 21301 21302 28
17042 21301 21303 28
17043 21301 21304 28
17044 21301 21305 28
17045 21306 21307 28
17046 21306 21308 28
17047 21306 21309 28
17048 21306 21310 28
17049 21311 21312 28
17050 21311 21313 28
17051 21311 21314 28
17052 21311 21315 28
17053 21316 21317 28
17054 21316 21318 28
17055 21316 21319 28
17056 21316 21320 28
17057 21321 21322 28
17058 21321 21323 28
17059 21321 21324 28
17060 21321 21325 28
17061 21326 21327 28
17062 21326 21328 28
17063 21326 21329 28
17064 21326 21330 28
17065 21331 21332 28
17066 21331 21333 28
17067 21331 21334 28
17068 21331 21335 28
17069 21336 21337 28
17070 21336 21338 28
17071 21336 21339 28
17072 21336 21340 28
17073 21341 21342 28
17074 21341 21343 28
17075 21341 21344 28
17076 21341 21345 28
17077 21346 21347 28
17078 21346 21348 28
17079 21346 21349 28
17080 21346 21350 28
17081 21351 21352 28
17082 21351 21353 28
17083 21351 21354 28
17084 21351 21355 28
17085 21356 21357 28
17086 21356 21358 28
17087 21356 21359 28
17088 21356 21360 28
17089 21361 21362 28
17090 21361 21363 28
17091 21361 21364 28
17092 21361 21365 28
17093 21366 21367 28
17094 21366 21368 28
17095 21366 21369 28
17096 21366 21370 28
17097 21371 21372 28
17098 21371 21373 28
17099 21371 21374 28
17100 21371 21375 28
17101 21376 21377 28
17102 21376 21378 28
17103 21376 21379 28
17104 21376 21380 28
17105 21381 21382 28
17106 21381 21383 28
17107 21381 21384 28
17108 21381 21385 28
17109 21386 21387 28
17110 21386 21388 28
17111 21386 21389 28
17112 21386 21390 28
17113 21391 21392 28
17114 21391 21393 28
17115 21391 21394 28
17116 21391 21395 28
17117 21396 21397 28
17118 21396 21398 28
17119 21396 21399 28
17120 21396 21400 28
17121 21401 21402 28
17122 21401 21403 28
17123 21401 21404 28
17124 21401 21405 28
17125 21406 21407 28
17126 21406 21408 28
17127 21406 21409 28
17128 21406 21410 28
17129 21411 21412 28
17130 21411 21413 28
17131 21411 21414 28
17132 21411 21415 28
17133 21416 21417 28
17134 21416 21418 28
17135 21416 21419 28
17136 21416 21420 28
17137 21421 21422 28
17138 21421 21423 28
17139 21421 21424 28
17140 21421 21425 28
17141 21426 21427 28
17142 21426 21428 28
17143 21426 21429 28
17144 21426 21430 28
17145 21431 21432 28
17146 21431 21433 28
17147 21431 21434 28
17148 21431 21435 28
17149 21436 21437 28
17150 21436 21438 28
17151 21436 21439 28
17152 21436 21440 28
17153 21441 21442 28
17154 21441 21443 28
17155 21441 21444 28
17156 21441 21445 28
17157 21446 21447 28
17158 21446 21448 28
17159 21446 21449 28
17160 21446 21450 28
17161 21451 21452 28
17162 21451 21453 28
17163 21451 21454 28
17164 21451 21455 28
17165 21456 21457 28
17166 21456 21458 28
17167 21456 21459 28
17168 21456 21460 28
17169 21461 21462 28
17170 21461 21463 28
17171 21461 21464 28
17172 21461 21465 28
17173 21466 21467 28
17174 21466 21468 28
17175 21466 21469 28
17176 21466 21470 28
17177 21471 21472 28
17178 21471 21473 28
17179 21471 21474 28
17180 21471 21475 28
17181 21476 21477 28
17182 21476 21478 28
17183 21476 21479 28
17184 21476 21480 28
17185 21481 21482 28
17186 21481 21483 28
17187 21481 21484 28
17188 21481 21485 28
17189 21486 21487 28
17190 21486 21488 28
17191 21486 21489 28
17192 21486 21490 28
17193 21491 21492 28
17194 21491 21493 28
17195 21491 21494 28
17196 21491 21495 28
17197 21496 21497 28
17198 21496 21498 28
17199 21496 21499 28
17200 21496 21500 28
17201 21501 21502 28
17202 21501 21503 28
17203 21501 21504 28
17204 21501 21505 28
17205 21506 21507 28
17206 21506 21508 28
17207 21506 21509 28
17208 21506 21510 28
17209 21511 21512 28
17210 21511 21513 28
17211 21511 21514 28
17212 21511 21515 28
17213 21516 21517 28
17214 21516 21518 28
17215 21516 21519 28
17216 21516 21520 28
17217 21521 21522 28
17218 21521 21523 28
17219 21521 21524 28
17220 21521 21525 28
17221 21526 21527 28
17222 21526 21528 28
17223 21526 21529 28
17224 21526 21530 28
17225 21531 21532 28
17226 21531 21533 28
17227 21531 21534 28
17228 21531 21535 28
17229 21536 21537 28
17230 21536 21538 28
17231 21536 21539 28
17232 21536 21540 28
17233 21541 21542 28
17234 21541 21543 28
17235 21541 21544 28
17236 21541 21545 28
17237 21546 21547 28
17238 21546 21548 28
17239 21546 21549 28
17240 21546 21550 28
17241 21551 21552 28
17242 21551 21553 28
17243 21551 21554 28
17244 21551 21555 28
17245 21556 21557 28
17246 21556 21558 28
17247 21556 21559 28
17248 21556 21560 28
17249 21561 21562 28
17250 21561 21563 28
17251 21561 21564 28
17252 21561 21565 28
17253 21566 21567 28
17254 21566 21568 28
17255 21566 21569 28
17256 21566 21570 28
17257 21571 21572 28
17258 21571 21573 28
17259 21571 21574 28
17260 21571 21575 28
17261 21576 21577 28
17262 21576 21578 28
17263 21576 21579 28
17264 21576 21580 28
17265 21581 21582 28
17266 21581 21583 28
17267 21581 21584 28
17268 21581 21585 28
17269 21586 21587 28
17270 21586 21588 28
17271 21586 21589 28
17272 21586 21590 28
17273 21591 21592 28
17274 21591 21593 28
17275 21591 21594 28
17276 21591 21595 28
17277 21596 21597 28
17278 21596 21598 28
17279 21596 21599 28
17280 21596 21600 28
17281 21601 21602 28
17282 21601 21603 28
17283 21601 21604 28
17284 21601 21605 28
17285 21606 21607 28
17286 21606 21608 28
17287 21606 21609 28
17288 21606 21610 28
17289 21611 21612 28
17290 21611 21613 28
17291 21611 21614 28
17292 21611 21615 28
17293 21616 21617 28
17294 21616 21618 28
17295 21616 21619 28
17296 21616 21620 28
17297 21621 21622 28
17298 21621 21623 28
17299 21621 21624 28
17300 21621 21625 28
17301 21626 21627 28
17302 21626 21628 28
17303 21626 21629 28
17304 21626 21630 28
17305 21631 21632 28
17306 21631 21633 28
17307 21631 21634 28
17308 21631 21635 28
17309 21636 21637 28
17310 21636 21638 28
17311 21636 21639 28
17312 21636 21640 28
17313 21641 21642 28
17314 21641 21643 28
17315 21641 21644 28
17316 21641 21645 28
17317 21646 21647 28
17318 21646 21648 28
17319 21646 21649 28
17320 21646 21650 28
17321 21651 21652 28
17322 21651 21653 28
17323 21651 21654 28
17324 21651 21655 28
17325 21656 21657 28
17326 21656 21658 28
17327 21656 21659 28
17328 21656 21660 28
17329 21661 21662 28
17330 21661 21663 28
17331 21661 21664 28
17332 21661 21665 28
17333 21666 21667 28
17334 21666 21668 28
17335 21666 21669 28
17336 21666 21670 28
17337 21671 21672 28
17338 21671 21673 28
17339 21671 21674 28
17340 21671 21675 28
17341 21676 21677 28
17342 21676 21678 28
17343 21676 21679 28
17344 21676 21680 28
17345 21681 21682 28
17346 21681 21683 28
17347 21681 21684 28
17348 21681 21685 28
17349 21686 21687 28
17350 21686 21688 28
17351 21686 21689 28
17352 21686 21690 28
17353 21691 21692 28
17354 21691 21693 28
17355 21691 21694 28
17356 21691 21695 28
17357 21696 21697 28
17358 21696 21698 28
17359 21696 21699 28
17360 21696 21700 28
17361 21701 21702 28
17362 21701 21703 28
17363 21701 21704 28
17364 21701 21705 28
17365 21706 21707 28
17366 21706 21708 28
17367 21706 21709 28
17368 21706 21710 28
17369 21711 21712 28
17370 21711 21713 28
17371 21711 21714 28
17372 21711 21715 28
17373 21716 21717 28
17374 21716 21718 28
17375 21716 21719 28
17376 21716 21720 28
17377 21721 21722 28
17378 21721 21723 28
17379 21721 21724 28
17380 21721 21725 28
17381 21726 21727 28
17382 21726 21728 28
17383 21726 21729 28
17384 21726 21730 28
17385 21731 21732 28
17386 21731 21733 28
17387 21731 21734 28
17388 21731 21735 28
17389 21736 21737 28
17390 21736 21738 28
17391 21736 21739 28
17392 21736 21740 28
17393 21741 21742 28
17394 21741 21743 28
17395 21741 21744 28
17396 21741 21745 28
17397 21746 21747 28
17398 21746 21748 28
17399 21746 21749 28
17400 21746 21750 28
17401 21751 21752 28
17402 21751 21753 28
17403 21751 21754 28
17404 21751 21755 28
17405 21756 21757 28
17406 21756 21758 28
17407 21756 21759 28
17408 21756 21760 28
17409 21761 21762 28
17410 21761 21763 28
17411 21761 21764 28
17412 21761 21765 28
17413 21766 21767 28
17414 21766 21768 28
17415 21766 21769 28
17416 21766 21770 28
17417 21771 21772 28
17418 21771 21773 28
17419 21771 21774 28
17420 21771 21775 28
17421 21776 21777 28
17422 21776 21778 28
17423 21776 21779 28
17424 21776 21780 28
17425 21781 21782 28
17426 21781 21783 28
17427 21781 21784 28
17428 21781 21785 28
17429 21786 21787 28
17430 21786 21788 28
17431 21786 21789 28
17432 21786 21790 28
17433 21791 21792 28
17434 21791 21793 28
17435 21791 21794 28
17436 21791 21795 28
17437 21796 21797 28
17438 21796 21798 28
17439 21796 21799 28
17440 21796 21800 28
17441 21801 21802 28
17442 21801 21803 28
17443 21801 21804 28
17444 21801 21805 28
17445 21806 21807 28
17446 21806 21808 28
17447 21806 21809 28
17448 21806 21810 28
17449 21811 21812 28
17450 21811 21813 28
17451 21811 21814 28
17452 21811 21815 28
17453 21816 21817 28
17454 21816 21818 28
17455 21816 21819 28
17456 21816 21820 28
17457 21821 21822 28
17458 21821 21823 28
17459 21821 21824 28
17460 21821 21825 28
17461 21826 21827 28
17462 21826 21828 28
17463 21826 21829 28
17464 21826 21830 28
17465 21831 21832 28
17466 21831 21833 28
17467 21831 21834 28
17468 21831 21835 28
17469 21836 21837 28
17470 21836 21838 28
17471 21836 21839 28
17472 21836 21840 28
17473 21841 21842 28
17474 21841 21843 28
17475 21841 21844 28
17476 21841 21845 28
17477 21846 21847 28
17478 21846 21848 28
17479 21846 21849 28
17480 21846 21850 28
17481 21851 21852 28
17482 21851 21853 28
17483 21851 21854 28
17484 21851 21855 28
17485 21856 21857 28
17486 21856 21858 28
17487 21856 21859 28
17488 21856 21860 28
17489 21861 21862 28
17490 21861 21863 28
17491 21861 21864 28
17492 21861 21865 28
17493 21866 21867 28
17494 21866 21868 28
17495 21866 21869 28
17496 21866 21870 28
17497 21871 21872 28
17498 21871 21873 28
17499 21871 21874 28
17500 21871 21875 28
17501 21876 21877 28
17502 21876 21878 28
17503 21876 21879 28
17504 21876 21880 28
17505 21881 21882 28
17506 21881 21883 28
17507 21881 21884 28
17508 21881 21885 28
17509 21886 21887 28
17510 21886 21888 28
17511 21886 21889 28
17512 21886 21890 28
17513 21891 21892 28
17514 21891 21893 28
17515 21891 21894 28
17516 21891 21895 28
17517 21896 21897 28
17518 21896 21898 28
17519 21896 21899 28
17520 21896 21900 28
17521 21901 21902 28
17522 21901 21903 28
17523 21901 21904 28
17524 21901 21905 28
17525 21906 21907 28
17526 21906 21908 28
17527 21906 21909 28
17528 21906 21910 28
17529 21911 21912 28
17530 21911 21913 28
17531 21911 21914 28
17532 21911 21915 28
17533 21916 21917 28
17534 21916 21918 28
17535 21916 21919 28
17536 21916 21920 28
17537 21921 21922 28
17538 21921 21923 28
17539 21921 21924 28
17540 21921 21925 28
17541 21926 21927 28
17542 21926 21928 28
17543 21926 21929 28
17544 21926 21930 28
17545 21931 21932 28
17546 21931 21933 28
17547 21931 21934 28
17548 21931 21935 28
17549 21936 21937 28
17550 21936 21938 28
17551 21936 21939 28
17552 21936 21940 28
17553 21941 21942 28
17554 21941 21943 28
17555 21941 21944 28
17556 21941 21945 28
17557 21946 21947 28
17558 21946 21948 28
17559 21946 21949 28
17560 21946 21950 28
17561 21951 21952 28
17562 21951 21953 28
17563 21951 21954 28
17564 21951 21955 28
17565 21956 21957 28
17566 21956 21958 28
17567 21956 21959 28
17568 21956 21960 28
17569 21961 21962 28
17570 21961 21963 28
17571 21961 21964 28
17572 21961 21965 28
17573 21966 21967 28
17574 21966 21968 28
17575 21966 21969 28
17576 21966 21970 28
17577 21971 21972 28
17578 21971 21973 28
17579 21971 21974 28
17580 21971 21975 28
17581 21976 21977 28
17582 21976 21978 28
17583 21976 21979 28
17584 21976 21980 28
17585 21981 21982 28
17586 21981 21983 28
17587 21981 21984 28
17588 21981 21985 28
17589 21986 21987 28
17590 21986 21988 28
17591 21986 21989 28
17592 21986 21990 28
17593 21991 21992 28
17594 21991 21993 28
17595 21991 21994 28
17596 21991 21995 28
17597 21996 21997 28
17598 21996 21998 28
17599 21996 21999 28
17600 21996 22000 28
17601 22001 22002 28
17602 22001 22003 28
17603 22001 22004 28
17604 22001 22005 28
17605 22006 22007 28
17606 22006 22008 28
17607 22006 22009 28
17608 22006 22010 28
17609 22011 22012 28
17610 22011 22013 28
17611 22011 22014 28
17612 22011 22015 28
17613 22016 22017 28
17614 22016 22018 28
17615 22016 22019 28
17616 22016 22020 28
17617 22021 22022 28
17618 22021 22023 28
17619 22021 22024 28
17620 22021 22025 28
17621 22026 22027 28
17622 22026 22028 28
17623 22026 22029 28
17624 22026 22030 28
17625 22031 22032 28
17626 22031 22033 28
17627 22031 22034 28
17628 22031 22035 28
17629 22036 22037 28
17630 22036 22038 28
17631 22036 22039 28
17632 22036 22040 28
17633 22041 22042 28
17634 22041 22043 28
17635 22041 22044 28
17636 22041 22045 28
17637 22046 22047 28
17638 22046 22048 28
17639 22046 22049 28
17640 22046 22050 28
17641 22051 22052 28
17642 22051 22053 28
17643 22051 22054 28
17644 22051 22055 28
17645 22056 22057 28
17646 22056 22058 28
17647 22056 22059 28
17648 22056 22060 28
17649 22061 22062 28
17650 22061 22063 28
17651 22061 22064 28
17652 22061 22065 28
17653 22066 22067 28
17654 22066 22068 28
17655 22066 22069 28
17656 22066 22070 28
17657 22071 22072 28
17658 22071 22073 28
17659 22071 22074 28
17660 22071 22075 28
17661 22076 22077 28
17662 22076 22078 28
17663 22076 22079 28
17664 22076 22080 28
17665 22081 22082 28
17666 22081 22083 28
17667 22081 22084 28
17668 22081 22085 28
17669 22086 22087 28
17670 22086 22088 28
17671 22086 22089 28
17672 22086 22090 28
17673 22091 22092 28
17674 22091 22093 28
17675 22091 22094 28
17676 22091 22095 28
17677 22096 22097 28
17678 22096 22098 28
17679 22096 22099 28
17680 22096 22100 28
17681 22101 22102 28
17682 22101 22103 28
17683 22101 22104 28
17684 22101 22105 28
17685 22106 22107 28
17686 22106 22108 28
17687 22106 22109 28
17688 22106 22110 28
17689 22111 22112 28
17690 22111 22113 28
17691 22111 22114 28
17692 22111 22115 28
17693 22116 22117 28
17694 22116 22118 28
17695 22116 22119 28
17696 22116 22120 28
17697 22121 22122 28
17698 22121 22123 28
17699 22121 22124 28
17700 22121 22125 28
17701 22126 22127 28
17702 22126 22128 28
17703 22126 22129 28
17704 22126 22130 28
17705 22131 22132 28
17706 22131 22133 28
17707 22131 22134 28
17708 22131 22135 28
17709 22136 22137 28
17710 22136 22138 28
17711 22136 22139 28
17712 22136 22140 28
17713 22141 22142 28
17714 22141 22143 28
17715 22141 22144 28
17716 22141 22145 28
17717 22146 22147 28
17718 22146 22148 28
17719 22146 22149 28
17720 22146 22150 28
17721 22151 22152 28
17722 22151 22153 28
17723 22151 22154 28
17724 22151 22155 28
17725 22156 22157 28
17726 22156 22158 28
17727 22156 22159 28
17728 22156 22160 28
17729 22161 22162 28
17730 22161 22163 28
17731 22161 22164 28
17732 22161 22165 28
17733 22166 22167 28
17734 22166 22168 28
17735 22166 22169 28
17736 22166 22170 28
17737 22171 22172 28
17738 22171 22173 28
17739 22171 22174 28
17740 22171 22175 28
17741 22176 22177 28
17742 22176 22178 28
17743 22176 22179 28
17744 22176 22180 28
17745 22181 22182 28
17746 22181 22183 28
17747 22181 22184 28
17748 22181 22185 28
17749 22186 22187 28
17750 22186 22188 28
17751 22186 22189 28
17752 22186 22190 28
17753 22191 22192 28
17754 22191 22193 28
17755 22191 22194 28
17756 22191 22195 28
17757 22196 22197 28
17758 22196 22198 28
17759 22196 22199 28
17760 22196 22200 28
17761 22201 22202 28
17762 22201 22203 28
17763 22201 22204 28
17764 22201 22205 28
17765 22206 22207 28
17766 22206 22208 28
17767 22206 22209 28
17768 22206 22210 28
17769 22211 22212 28
17770 22211 22213 28
17771 22211 22214 28
17772 22211 22215 28
17773 22216 22217 28
17774 22216 22218 28
17775 22216 22219 28
17776 22216 22220 28
17777 22221 22222 28
17778 22221 22223 28
17779 22221 22224 28
17780 22221 22225 28
17781 22226 22227 28
17782 22226 22228 28
17783 22226 22229 28
17784 22226 22230 28
17785 22231 22232 28
17786 22231 22233 28
17787 22231 22234 28
17788 22231 22235 28
17789 22236 22237 28
17790 22236 22238 28
17791 22236 22239 28
17792 22236 22240 28
17793 22241 22242 28
17794 22241 22243 28
17795 22241 22244 28
17796 22241 22245 28
17797 22246 22247 28
17798 22246 22248 28
17799 22246 22249 28
17800 22246 22250 28
17801 22251 22252 28
17802 22251 22253 28
17803 22251 22254 28
17804 22251 22255 28
17805 22256 22257 28
17806 22256 22258 28
17807 22256 22259 28
17808 22256 22260 28
17809 22261 22262 28
17810 22261 22263 28
17811 22261 22264 28
17812 22261 22265 28
17813 22266 22267 28
17814 22266 22268 28
17815 22266 22269 28
17816 22266 22270 28
17817 22271 22272 28
17818 22271 22273 28
17819 22271 22274 28
17820 22271 22275 28
17821 22276 22277 28
17822 22276 22278 28
17823 22276 22279 28
17824 22276 22280 28
17825 22281 22282 28
17826 22281 22283 28
17827 22281 22284 28
17828 22281 22285 28
17829 22286 22287 28
17830 22286 22288 28
17831 22286 22289 28
17832 22286 22290 28
17833 22291 22292 28
17834 22291 22293 28
17835 22291 22294 28
17836 22291 22295 28
17837 22296 22297 28
17838 22296 22298 28
17839 22296 22299 28
17840 22296 22300 28
17841 22301 22302 28
17842 22301 22303 28
17843 22301 22304 28
17844 22301 22305 28
17845 22306 22307 28
17846 22306 22308 28
17847 22306 22309 28
17848 22306 22310 28
17849 22311 22312 28
17850 22311 22313 28
17851 22311 22314 28
17852 22311 22315 28
17853 22316 22317 28
17854 22316 22318 28
17855 22316 22319 28
17856 22316 22320 28
17857 22321 22322 28
17858 22321 22323 28
17859 22321 22324 28
17860 22321 22325 28
17861 22326 22327 28
17862 22326 22328 28
17863 22326 22329 28
17864 22326 22330 28
17865 22331 22332 28
17866 22331 22333 28
17867 22331 22334 28
17868 22331 22335 28
17869 22336 22337 28
17870 22336 22338 28
17871 22336 22339 28
17872 22336 22340 28
17873 22341 22342 28
17874 22341 22343 28
17875 22341 22344 28
17876 22341 22345 28
17877 22346 22347 28
17878 22346 22348 28
17879 22346 22349 28
17880 22346 22350 28
17881 22351 22352 28
17882 22351 22353 28
17883 22351 22354 28
17884 22351 22355 28
17885 22356 22357 28
17886 22356 22358 28
17887 22356 22359 28
17888 22356 22360 28
17889 22361 22362 28
17890 22361 22363 28
17891 22361 22364 28
17892 22361 22365 28
17893 22366 22367 28
17894 22366 22368 28
17895 22366 22369 28
17896 22366 22370 28
17897 22371 22372 28
17898 22371 22373 28
17899 22371 22374 28
17900 22371 22375 28
17901 22376 22377 28
17902 22376 22378 28
17903 22376 22379 28
17904 22376 22380 28
17905 22381 22382 28
17906 22381 22383 28
17907 22381 22384 28
17908 22381 22385 28
17909 22386 22387 28
17910 22386 22388 28
17911 22386 22389 28
17912 22386 22390 28
17913 22391 22392 28
17914 22391 22393 28
17915 22391 22394 28
17916 22391 22395 28
17917 22396 22397 28
17918 22396 22398 28
17919 22396 22399 28
17920 22396 22400 28
17921 22401 22402 28
17922 22401 22403 28
17923 22401 22404 28
17924 22401 22405 28
17925 22406 22407 28
17926 22406 22408 28
17927 22406 22409 28
17928 22406 22410 28
17929 22411 22412 28
17930 22411 22413 28
17931 22411 22414 28
17932 22411 22415 28
17933 22416 22417 28
17934 22416 22418 28
17935 22416 22419 28
17936 22416 22420 28
17937 22421 22422 28
17938 22421 22423 28
17939 22421 22424 28
17940 22421 22425 28
17941 22426 22427 28
17942 22426 22428 28
17943 22426 22429 28
17944 22426 22430 28
17945 22431 22432 28
17946 22431 22433 28
17947 22431 22434 28
17948 22431 22435 28
17949 22436 22437 28
17950 22436 22438 28
17951 22436 22439 28
17952 22436 22440 28
17953 22441 22442 28
17954 22441 22443 28
17955 22441 22444 28
17956 22441 22445 28
17957 22446 22447 28
17958 22446 22448 28
17959 22446 22449 28
17960 22446 22450 28
17961 22451 22452 28
17962 22451 22453 28
17963 22451 22454 28
17964 22451 22455 28
17965 22456 22457 28
17966 22456 22458 28
17967 22456 22459 28
17968 22456 22460 28
17969 22461 22462 28
17970 22461 22463 28
17971 22461 22464 28
17972 22461 22465 28
17973 22466 22467 28
17974 22466 22468 28
17975 22466 22469 28
17976 22466 22470 28
17977 22471 22472 28
17978 22471 22473 28
17979 22471 22474 28
17980 22471 22475 28
17981 22476 22477 28
17982 22476 22478 28
17983 22476 22479 28
17984 22476 22480 28
17985 22481 22482 28
17986 22481 22483 28
17987 22481 22484 28
17988 22481 22485 28
17989 22486 22487 28
17990 22486 22488 28
17991 22486 22489 28
17992 22486 22490 28
17993 22491 22492 28
17994 22491 22493 28
17995 22491 22494 28
17996 22491 22495 28
17997 22496 22497 28
17998 22496 22498 28
17999 22496 22499 28
18000 22496 22500 28
18001 22501 22502 28
18002 22501 22503 28
18003 22501 22504 28
18004 22501 22505 28
18005 22506 22507 28
18006 22506 22508 28
18007 22506 22509 28
18008 22506 22510 28
18009 22511 22512 28
18010 22511 22513 28
18011 22511 22514 28
18012 22511 22515 28
18013 22516 22517 28
18014 22516 22518 28
18015 22516 22519 28
18016 22516 22520 28
18017 22521 22522 28
18018 22521 22523 28
18019 22521 22524 28
18020 22521 22525 28
18021 22526 22527 28
18022 22526 22528 28
18023 22526 22529 28
18024 22526 22530 28
18025 22531 22532 28
18026 22531 22533 28
18027 22531 22534 28
18028 22531 22535 28
18029 22536 22537 28
18030 22536 22538 28
18031 22536 22539 28
18032 22536 22540 28
18033 22541 22542 28
18034 22541 22543 28
18035 22541 22544 28
18036 22541 22545 28
18037 22546 22547 28
18038 22546 22548 28
18039 22546 22549 28
18040 22546 22550 28
18041 22551 22552 28
18042 22551 22553 28
18043 22551 22554 28
18044 22551 22555 28
18045 22556 22557 28
18046 22556 22558 28
18047 22556 22559 28
18048 22556 22560 28
18049 22561 22562 28
18050 22561 22563 28
18051 22561 22564 28
18052 22561 22565 28
18053 22566 22567 28
18054 22566 22568 28
18055 22566 22569 28
18056 22566 22570 28
18057 22571 22572 28
18058 22571 22573 28
18059 22571 22574 28
18060 22571 22575 28
18061 22576 22577 28
18062 22576 22578 28
18063 22576 22579 28
18064 22576 22580 28
18065 22581 22582 28
18066 22581 22583 28
18067 22581 22584 28
18068 22581 22585 28
18069 22586 22587 28
18070 22586 22588 28
18071 22586 22589 28
18072 22586 22590 28
18073 22591 22592 28
18074 22591 22593 28
18075 22591 22594 28
18076 22591 22595 28
18077 22596 22597 28
18078 22596 22598 28
18079 22596 22599 28
18080 22596 22600 28
18081 22601 22602 28
18082 22601 22603 28
18083 22601 22604 28
18084 22601 22605 28
18085 22606 22607 28
18086 22606 22608 28
18087 22606 22609 28
18088 22606 22610 28
18089 22611 22612 28
18090 22611 22613 28
18091 22611 22614 28
18092 22611 22615 28
18093 22616 22617 28
18094 22616 22618 28
18095 22616 22619 28
18096 22616 22620 28
18097 22621 22622 28
18098 22621 22623 28
18099 22621 22624 28
18100 22621 22625 28
18101 22626 22627 28
18102 22626 22628 28
18103 22626 22629 28
18104 22626 22630 28
18105 22631 22632 28
18106 22631 22633 28
18107 22631 22634 28
18108 22631 22635 28
18109 22636 22637 28
18110 22636 22638 28
18111 22636 22639 28
18112 22636 22640 28
18113 22641 22642 28
18114 22641 22643 28
18115 22641 22644 28
18116 22641 22645 28
18117 22646 22647 28
18118 22646 22648 28
18119 22646 22649 28
18120 22646 22650 28
18121 22651 22652 28
18122 22651 22653 28
18123 22651 22654 28
18124 22651 22655 28
18125 22656 22657 28
18126 22656 22658 28
18127 22656 22659 28
18128 22656 22660 28
18129 22661 22662 28
18130 22661 22663 28
18131 22661 22664 28
18132 22661 22665 28
18133 22666 22667 28
18134 22666 22668 28
18135 22666 22669 28
18136 22666 22670 28
18137 22671 22672 28
18138 22671 22673 28
18139 22671 22674 28
18140 22671 22675 28
18141 22676 22677 28
18142 22676 22678 28
18143 22676 22679 28
18144 22676 22680 28
18145 22681 22682 28
18146 22681 22683 28
18147 22681 22684 28
18148 22681 22685 28
18149 22686 22687 28
18150 22686 22688 28
18151 22686 22689 28
18152 22686 22690 28
18153 22691 22692 28
18154 22691 22693 28
18155 22691 22694 28
18156 22691 22695 28
18157 22696 22697 28
18158 22696 22698 28
18159 22696 22699 28
18160 22696 22700 28
18161 22701 22702 28
18162 22701 22703 28
18163 22701 22704 28
18164 22701 22705 28
18165 22706 22707 28
18166 22706 22708 28
18167 22706 22709 28
18168 22706 22710 28
18169 22711 22712 28
18170 22711 22713 28
18171 22711 22714 28
18172 22711 22715 28
18173 22716 22717 28
18174 22716 22718 28
18175 22716 22719 28
18176 22716 22720 28
18177 22721 22722 28
18178 22721 22723 28
18179 22721 22724 28
18180 22721 22725 28
18181 22726 22727 28
18182 22726 22728 28
18183 22726 22729 28
18184 22726 22730 28
18185 22731 22732 28
18186 22731 22733 28
18187 22731 22734 28
18188 22731 22735 28
18189 22736 22737 28
18190 22736 22738 28
18191 22736 22739 28
18192 22736 22740 28
18193 22741 22742 28
18194 22741 22743 28
18195 22741 22744 28
18196 22741 22745 28
18197 22746 22747 28
18198 22746 22748 28
18199 22746 22749 28
18200 22746 22750 28
18201 22751 22752 28
18202 22751 22753 28
18203 22751 22754 28
18204 22751 22755 28
18205 22756 22757 28
18206 22756 22758 28
18207 22756 22759 28
18208 22756 22760 28
18209 22761 22762 28
18210 22761 22763 28
18211 22761 22764 28
18212 22761 22765 28
18213 22766 22767 28
18214 22766 22768 28
18215 22766 22769 28
18216 22766 22770 28
18217 22771 22772 28
18218 22771 22773 28
18219 22771 22774 28
18220 22771 22775 28
18221 22776 22777 28
18222 22776 22778 28
18223 22776 22779 28
18224 22776 22780 28
18225 22781 22782 28
18226 22781 22783 28
18227 22781 22784 28
18228 22781 22785 28
18229 22786 22787 28
18230 22786 22788 28
18231 22786 22789 28
18232 22786 22790 28
18233 22791 22792 28
18234 22791 22793 28
18235 22791 22794 28
18236 22791 22795 28
18237 22796 22797 28
18238 22796 22798 28
18239 22796 22799 28
18240 22796 22800 28
18241 22801 22802 28
18242 22801 22803 28
18243 22801 22804 28
18244 22801 22805 28
18245 22806 22807 28
18246 22806 22808 28
18247 22806 22809 28
18248 22806 22810 28
18249 22811 22812 28
18250 22811 22813 28
18251 22811 22814 28
18252 22811 22815 28
18253 22816 22817 28
18254 22816 22818 28
18255 22816 22819 28
18256 22816 22820 28
18257 22821 22822 28
18258 22821 22823 28
18259 22821 22824 28
18260 22821 22825 28
18261 22826 22827 28
18262 22826 22828 28
18263 22826 22829 28
18264 22826 22830 28
18265 22831 22832 28
18266 22831 22833 28
18267 22831 22834 28
18268 22831 22835 28
18269 22836 22837 28
18270 22836 22838 28
18271 22836 22839 28
18272 22836 22840 28
18273 22841 22842 28
18274 22841 22843 28
18275 22841 22844 28
18276 22841 22845 28
18277 22846 22847 28
18278 22846 22848 28
18279 22846 22849 28
18280 22846 22850 28
18281 22851 22852 28
18282 22851 22853 28
18283 22851 22854 28
18284 22851 22855 28
18285 22856 22857 28
18286 22856 22858 28
18287 22856 22859 28
18288 22856 22860 28
18289 22861 22862 28
18290 22861 22863 28
18291 22861 22864 28
18292 22861 22865 28
18293 22866 22867 28
18294 22866 22868 28
18295 22866 22869 28
18296 22866 22870 28
18297 22871 22872 28
18298 22871 22873 28
18299 22871 22874 28
18300 22871 22875 28
18301 22876 22877 28
18302 22876 22878 28
18303 22876 22879 28
18304 22876 22880 28
18305 22881 22882 28
18306 22881 22883 28
18307 22881 22884 28
18308 22881 22885 28
18309 22886 22887 28
18310 22886 22888 28
18311 22886 22889 28
18312 22886 22890 28
18313 22891 22892 28
18314 22891 22893 28
18315 22891 22894 28
18316 22891 22895 28
18317 22896 22897 28
18318 22896 22898 28
18319 22896 22899 28
18320 22896 22900 28
18321 22901 22902 28
18322 22901 22903 28
18323 22901 22904 28
18324 22901 22905 28
18325 22906 22907 28
18326 22906 22908 28
18327 22906 22909 28
18328 22906 22910 28
18329 22911 22912 28
18330 22911 22913 28
18331 22911 22914 28
18332 22911 22915 28
18333 22916 22917 28
18334 22916 22918 28
18335 22916 22919 28
18336 22916 22920 28
18337 22921 22922 28
18338 22921 22923 28
18339 22921 22924 28
18340 22921 22925 28
18341 22926 22927 28
18342 22926 22928 28
18343 22926 22929 28
18344 22926 22930 28
18345 22931 22932 28
18346 22931 22933 28
18347 22931 22934 28
18348 22931 22935 28
18349 22936 22937 28
18350 22936 22938 28
18351 22936 22939 28
18352 22936 22940 28
18353 22941 22942 28
18354 22941 22943 28
18355 22941 22944 28
18356 22941 22945 28
18357 22946 22947 28
18358 22946 22948 28
18359 22946 22949 28
18360 22946 22950 28
18361 22951 22952 28
18362 22951 22953 28
18363 22951 22954 28
18364 22951 22955 28
18365 22956 22957 28
18366 22956 22958 28
18367 22956 22959 28
18368 22956 22960 28
18369 22961 22962 28
18370 22961 22963 28
18371 22961 22964 28
18372 22961 22965 28
18373 22966 22967 28
18374 22966 22968 28
18375 22966 22969 28
18376 22966 22970 28
18377 22971 22972 28
18378 22971 22973 28
18379 22971 22974 28
18380 22971 22975 28
18381 22976 22977 28
18382 22976 22978 28
18383 22976 22979 28
18384 22976 22980 28
18385 22981 22982 28
18386 22981 22983 28
18387 22981 22984 28
18388 22981 22985 28
18389 22986 22987 28
18390 22986 22988 28
18391 22986 22989 28
18392 22986 22990 28
18393 22991 22992 28
18394 22991 22993 28
18395 22991 22994 28
18396 22991 22995 28
18397 22996 22997 28
18398 22996 22998 28
18399 22996 22999 28
18400 22996 23000 28
18401 23001 23002 28
18402 23001 23003 28
18403 23001 23004 28
18404 23001 23005 28
18405 23006 23007 28
18406 23006 23008 28
18407 23006 23009 28
18408 23006 23010 28
18409 23011 23012 28
18410 23011 23013 28
18411 23011 23014 28
18412 23011 23015 28
18413 23016 23017 28
18414 23016 23018 28
18415 23016 23019 28
18416 23016 23020 28
18417 23021 23022 28
18418 23021 23023 28
18419 23021 23024 28
18420 23021 23025 28
18421 23026 23027 28
18422 23026 23028 28
18423 23026 23029 28
18424 23026 23030 28
18425 23031 23032 28
18426 23031 23033 28
18427 23031 23034 28
18428 23031 23035 28
18429 23036 23037 28
18430 23036 23038 28
18431 23036 23039 28
18432 23036 23040 28
18433 23041 23042 28
18434 23041 23043 28
18435 23041 23044 28
18436 23041 23045 28
18437 23046 23047 28
18438 23046 23048 28
18439 23046 23049 28
18440 23046 23050 28
18441 23051 23052 28
18442 23051 23053 28
18443 23051 23054 28
18444 23051 23055 28
18445 23056 23057 28
18446 23056 23058 28
18447 23056 23059 28
18448 23056 23060 28
18449 23061 23062 28
18450 23061 23063 28
18451 23061 23064 28
18452 23061 23065 28
18453 23066 23067 28
18454 23066 23068 28
18455 23066 23069 28
18456 23066 23070 28
18457 23071 23072 28
18458 23071 23073 28
18459 23071 23074 28
18460 23071 23075 28
18461 23076 23077 28
18462 23076 23078 28
18463 23076 23079 28
18464 23076 23080 28
18465 23081 23082 28
18466 23081 23083 28
18467 23081 23084 28
18468 23081 23085 28
18469 23086 23087 28
18470 23086 23088 28
18471 23086 23089 28
18472 23086 23090 28
18473 23091 23092 28
18474 23091 23093 28
18475 23091 23094 28
18476 23091 23095 28
18477 23096 23097 28
18478 23096 23098 28
18479 23096 23099 28
18480 23096 23100 28
18481 23101 23102 28
18482 23101 23103 28
18483 23101 23104 28
18484 23101 23105 28
18485 23106 23107 28
18486 23106 23108 28
18487 23106 23109 28
18488 23106 23110 28
18489 23111 23112 28
18490 23111 23113 28
18491 23111 23114 28
18492 23111 23115 28
18493 23116 23117 28
18494 23116 23118 28
18495 23116 23119 28
18496 23116 23120 28
18497 23121 23122 28
18498 23121 23123 28
18499 23121 23124 28
18500 23121 23125 28
18501 23126 23127 28
18502 23126 23128 28
18503 23126 23129 28
18504 23126 23130 28
18505 23131 23132 28
18506 23131 23133 28
18507 23131 23134 28
18508 23131 23135 28
18509 23136 23137 28
18510 23136 23138 28
18511 23136 23139 28
18512 23136 23140 28
18513 23141 23142 28
18514 23141 23143 28
18515 23141 23144 28
18516 23141 23145 28
18517 23146 23147 28
18518 23146 23148 28
18519 23146 23149 28
18520 23146 23150 28
18521 23151 23152 28
18522 23151 23153 28
18523 23151 23154 28
18524 23151 23155 28
18525 23156 23157 28
18526 23156 23158 28
18527 23156 23159 28
18528 23156 23160 28
18529 23161 23162 28
18530 23161 23163 28
18531 23161 23164 28
18532 23161 23165 28
18533 23166 23167 28
18534 23166 23168 28
18535 23166 23169 28
18536 23166 23170 28
18537 23171 23172 28
18538 23171 23173 28
18539 23171 23174 28
18540 23171 23175 28
18541 23176 23177 28
18542 23176 23178 28
18543 23176 23179 28
18544 23176 23180 28
18545 23181 23182 28
18546 23181 23183 28
18547 23181 23184 28
18548 23181 23185 28
18549 23186 23187 28
18550 23186 23188 28
18551 23186 23189 28
18552 23186 23190 28
18553 23191 23192 28
18554 23191 23193 28
18555 23191 23194 28
18556 23191 23195 28
18557 23196 23197 28
18558 23196 23198 28
18559 23196 23199 28
18560 23196 23200 28
18561 23201 23202 28
18562 23201 23203 28
18563 23201 23204 28
18564 23201 23205 28
18565 23206 23207 28
18566 23206 23208 28
18567 23206 23209 28
18568 23206 23210 28
18569 23211 23212 28
18570 23211 23213 28
18571 23211 23214 28
18572 23211 23215 28
18573 23216 23217 28
18574 23216 23218 28
18575 23216 23219 28
18576 23216 23220 28
18577 23221 23222 28
18578 23221 23223 28
18579 23221 23224 28
18580 23221 23225 28
18581 23226 23227 28
18582 23226 23228 28
18583 23226 23229 28
18584 23226 23230 28
18585 23231 23232 28
18586 23231 23233 28
18587 23231 23234 28
18588 23231 23235 28
18589 23236 23237 28
18590 23236 23238 28
18591 23236 23239 28
18592 23236 23240 28
18593 23241 23242 28
18594 23241 23243 28
18595 23241 23244 28
18596 23241 23245 28
18597 23246 23247 28
18598 23246 23248 28
18599 23246 23249 28
18600 23246 23250 28
18601 23251 23252 28
18602 23251 23253 28
18603 23251 23254 28
18604 23251 23255 28
18605 23256 23257 28
18606 23256 23258 28
18607 23256 23259 28
18608 23256 23260 28
18609 23261 23262 28
18610 23261 23263 28
18611 23261 23264 28
18612 23261 23265 28
18613 23266 23267 28
18614 23266 23268 28
18615 23266 23269 28
18616 23266 23270 28
18617 23271 23272 28
18618 23271 23273 28
18619 23271 23274 28
18620 23271 23275 28
18621 23276 23277 28
18622 23276 23278 28
18623 23276 23279 28
18624 23276 23280 28
18625 23281 23282 28
18626 23281 23283 28
18627 23281 23284 28
18628 23281 23285 28
18629 23286 23287 28
18630 23286 23288 28
18631 23286 23289 28
18632 23286 23290 28
18633 23291 23292 28
18634 23291 23293 28
18635 23291 23294 28
18636 23291 23295 28
18637 23296 23297 28
18638 23296 23298 28
18639 23296 23299 28
18640 23296 23300 28
18641 23301 23302 28
18642 23301 23303 28
18643 23301 23304 28
18644 23301 23305 28
18645 23306 23307 28
18646 23306 23308 28
18647 23306 23309 28
18648 23306 23310 28
18649 23311 23312 28
18650 23311 23313 28
18651 23311 23314 28
18652 23311 23315 28
18653 23316 23317 28
18654 23316 23318 28
18655 23316 23319 28
18656 23316 23320 28
18657 23321 23322 28
18658 23321 23323 28
18659 23321 23324 28
18660 23321 23325 28
18661 23326 23327 28
18662 23326 23328 28
18663 23326 23329 28
18664 23326 23330 28
18665 23331 23332 28
18666 23331 23333 28
18667 23331 23334 28
18668 23331 23335 28
18669 23336 23337 28
18670 23336 23338 28
18671 23336 23339 28
18672 23336 23340 28
18673 23341 23342 28
18674 23341 23343 28
18675 23341 23344 28
18676 23341 23345 28
18677 23346 23347 28
18678 23346 23348 28
18679 23346 23349 28
18680 23346 23350 28
18681 23351 23352 28
18682 23351 23353 28
18683 23351 23354 28
18684 23351 23355 28
18685 23356 23357 28
18686 23356 23358 28
18687 23356 23359 28
18688 23356 23360 28
18689 23361 23362 28
18690 23361 23363 28
18691 23361 23364 28
18692 23361 23365 28
18693 23366 23367 28
18694 23366 23368 28
18695 23366 23369 28
18696 23366 23370 28
18697 23371 23372 28
18698 23371 23373 28
18699 23371 23374 28
18700 23371 23375 28
18701 23376 23377 28
18702 23376 23378 28
18703 23376 23379 28
18704 23376 23380 28
18705 23381 23382 28
18706 23381 23383 28
18707 23381 23384 28
18708 23381 23385 28
18709 23386 23387 28
18710 23386 23388 28
18711 23386 23389 28
18712 23386 23390 28
18713 23391 23392 28
18714 23391 23393 28
18715 23391 23394 28
18716 23391 23395 28
18717 23396 23397 28
18718 23396 23398 28
18719 23396 23399 28
18720 23396 23400 28
18721 23401 23402 28
18722 23401 23403 28
18723 23401 23404 28
18724 23401 23405 28
18725 23406 23407 28
18726 23406 23408 28
18727 23406 23409 28
18728 23406 23410 28
18729 23411 23412 28
18730 23411 23413 28
18731 23411 23414 28
18732 23411 23415 28
18733 23416 23417 28
18734 23416 23418 28
18735 23416 23419 28
18736 23416 23420 28
18737 23421 23422 28
18738 23421 23423 28
18739 23421 23424 28
18740 23421 23425 28
18741 23426 23427 28
18742 23426 23428 28
18743 23426 23429 28
18744 23426 23430 28
18745 23431 23432 28
18746 23431 23433 28
18747 23431 23434 28
18748 23431 23435 28
18749 23436 23437 28
18750 23436 23438 28
18751 23436 23439 28
18752 23436 23440 28
18753 23441 23442 28
18754 23441 23443 28
18755 23441 23444 28
18756 23441 23445 28
18757 23446 23447 28
18758 23446 23448 28
18759 23446 23449 28
18760 23446 23450 28
18761 23451 23452 28
18762 23451 23453 28
18763 23451 23454 28
18764 23451 23455 28
18765 23456 23457 28
18766 23456 23458 28
18767 23456 23459 28
18768 23456 23460 28
18769 23461 23462 28
18770 23461 23463 28
18771 23461 23464 28
18772 23461 23465 28
18773 23466 23467 28
18774 23466 23468 28
18775 23466 23469 28
18776 23466 23470 28
18777 23471 23472 28
18778 23471 23473 28
18779 23471 23474 28
18780 23471 23475 28
18781 23476 23477 28
18782 23476 23478 28
18783 23476 23479 28
18784 23476 23480 28
18785 23481 23482 28
18786 23481 23483 28
18787 23481 23484 28
18788 23481 23485 28
18789 23486 23487 28
18790 23486 23488 28
18791 23486 23489 28
18792 23486 23490 28
18793 23491 23492 28
18794 23491 23493 28
18795 23491 23494 28
18796 23491 23495 28
18797 23496 23497 28
18798 23496 23498 28
18799 23496 23499 28
18800 23496 23500 28
18801 23501 23502 28
18802 23501 23503 28
18803 23501 23504 28
18804 23501 23505 28
18805 23506 23507 28
18806 23506 23508 28
18807 23506 23509 28
18808 23506 23510 28
18809 23511 23512 28
18810 23511 23513 28
18811 23511 23514 28
18812 23511 23515 28
18813 23516 23517 28
18814 23516 23518 28
18815 23516 23519 28
18816 23516 23520 28
18817 23521 23522 28
18818 23521 23523 28
18819 23521 23524 28
18820 23521 23525 28
18821 23526 23527 28
18822 23526 23528 28
18823 23526 23529 28
18824 23526 23530 28
18825 23531 23532 28
18826 23531 23533 28
18827 23531 23534 28
18828 23531 23535 28
18829 23536 23537 28
18830 23536 23538 28
18831 23536 23539 28
18832 23536 23540 28
18833 23541 23542 28
18834 23541 23543 28
18835 23541 23544 28
18836 23541 23545 28
18837 23546 23547 28
18838 23546 23548 28
18839 23546 23549 28
18840 23546 23550 28
18841 23551 23552 28
18842 23551 23553 28
18843 23551 23554 28
18844 23551 23555 28
18845 23556 23557 28
18846 23556 23558 28
18847 23556 23559 28
18848 23556 23560 28
18849 23561 23562 28
18850 23561 23563 28
18851 23561 23564 28
18852 23561 23565 28
18853 23566 23567 28
18854 23566 23568 28
18855 23566 23569 28
18856 23566 23570 28
18857 23571 23572 28
18858 23571 23573 28
18859 23571 23574 28
18860 23571 23575 28
18861 23576 23577 28
18862 23576 23578 28
18863 23576 23579 28
18864 23576 23580 28
18865 23581 23582 28
18866 23581 23583 28
18867 23581 23584 28
18868 23581 23585 28
18869 23586 23587 28
18870 23586 23588 28
18871 23586 23589 28
18872 23586 23590 28
18873 23591 23592 28
18874 23591 23593 28
18875 23591 23594 28
18876 23591 23595 28
18877 23596 23597 28
18878 23596 23598 28
18879 23596 23599 28
18880 23596 23600 28
18881 23601 23602 28
18882 23601 23603 28
18883 23601 23604 28
18884 23601 23605 28
18885 23606 23607 28
18886 23606 23608 28
18887 23606 23609 28
18888 23606 23610 28
18889 23611 23612 28
18890 23611 23613 28
18891 23611 23614 28
18892 23611 23615 28
18893 23616 23617 28
18894 23616 23618 28
18895 23616 23619 28
18896 23616 23620 28
18897 23621 23622 28
18898 23621 23623 28
18899 23621 23624 28
18900 23621 23625 28
18901 23626 23627 28
18902 23626 23628 28
18903 23626 23629 28
18904 23626 23630 28
18905 23631 23632 28
18906 23631 23633 28
18907 23631 23634 28
18908 23631 23635 28
18909 23636 23637 28
18910 23636 23638 28
18911 23636 23639 28
18912 23636 23640 28
18913 23641 23642 28
18914 23641 23643 28
18915 23641 23644 28
18916 23641 23645 28
18917 23646 23647 28
18918 23646 23648 28
18919 23646 23649 28
18920 23646 23650 28
18921 23651 23652 28
18922 23651 23653 28
18923 23651 23654 28
18924 23651 23655 28
18925 23656 23657 28
18926 23656 23658 28
18927 23656 23659 28
18928 23656 23660 28
18929 23661 23662 28
18930 23661 23663 28
18931 23661 23664 28
18932 23661 23665 28
18933 23666 23667 28
18934 23666 23668 28
18935 23666 23669 28
18936 23666 23670 28
18937 23671 23672 28
18938 23671 23673 28
18939 23671 23674 28
18940 23671 23675 28
18941 23676 23677 28
18942 23676 23678 28
18943 23676 23679 28
18944 23676 23680 28
18945 23681 23682 28
18946 23681 23683 28
18947 23681 23684 28
18948 23681 23685 28
18949 23686 23687 28
18950 23686 23688 28
18951 23686 23689 28
18952 23686 23690 28
18953 23691 23692 28
18954 23691 23693 28
18955 23691 23694 28
18956 23691 23695 28
18957 23696 23697 28
18958 23696 23698 28
18959 23696 23699 28
18960 23696 23700 28
18961 23701 23702 28
18962 23701 23703 28
18963 23701 23704 28
18964 23701 23705 28
18965 23706 23707 28
18966 23706 23708 28
18967 23706 23709 28
18968 23706 23710 28
18969 23711 23712 28
18970 23711 23713 28
18971 23711 23714 28
18972 23711 23715 28
18973 23716 23717 28
18974 23716 23718 28
18975 23716 23719 28
18976 23716 23720 28
18977 23721 23722 28
18978 23721 23723 28
18979 23721 23724 28
18980 23721 23725 28
18981 23726 23727 28
18982 23726 23728 28
18983 23726 23729 28
18984 23726 23730 28
18985 23731 23732 28
18986 23731 23733 28
18987 23731 23734 28
18988 23731 23735 28
18989 23736 23737 28
18990 23736 23738 28
18991 23736 23739 28
18992 23736 23740 28
18993 23741 23742 28
18994 23741 23743 28
18995 23741 23744 28
18996 23741 23745 28
18997 23746 23747 28
18998 23746 23748 28
18999 23746 23749 28
19000 23746 23750 28
19001 23751 23752 28
19002 23751 23753 28
19003 23751 23754 28
19004 23751 23755 28
19005 23756 23757 28
19006 23756 23758 28
19007 23756 23759 28
19008 23756 23760 28
19009 23761 23762 28
19010 23761 23763 28
19011 23761 23764 28
19012 23761 23765 28
19013 23766 23767 28
19014 23766 23768 28
19015 23766 23769 28
19016 23766 23770 28
19017 23771 23772 28
19018 23771 23773 28
19019 23771 23774 28
19020 23771 23775 28
19021 23776 23777 28
19022 23776 23778 28
19023 23776 23779 28
19024 23776 23780 28
19025 23781 23782 28
19026 23781 23783 28
19027 23781 23784 28
19028 23781 23785 28
19029 23786 23787 28
19030 23786 23788 28
19031 23786 23789 28
19032 23786 23790 28
19033 23791 23792 28
19034 23791 23793 28
19035 23791 23794 28
19036 23791 23795 28
19037 23796 23797 28
19038 23796 23798 28
19039 23796 23799 28
19040 23796 23800 28
19041 23801 23802 28
19042 23801 23803 28
19043 23801 23804 28
19044 23801 23805 28
19045 23806 23807 28
19046 23806 23808 28
19047 23806 23809 28
19048 23806 23810 28
19049 23811 23812 28
19050 23811 23813 28
19051 23811 23814 28
19052 23811 23815 28
19053 23816 23817 28
19054 23816 23818 28
19055 23816 23819 28
19056 23816 23820 28
19057 23821 23822 28
19058 23821 23823 28
19059 23821 23824 28
19060 23821 23825 28
19061 23826 23827 28
19062 23826 23828 28
19063 23826 23829 28
19064 23826 23830 28
19065 23831 23832 28
19066 23831 23833 28
19067 23831 23834 28
19068 23831 23835 28
19069 23836 23837 28
19070 23836 23838 28
19071 23836 23839 28
19072 23836 23840 28
19073 23841 23842 28
19074 23841 23843 28
19075 23841 23844 28
19076 23841 23845 28
19077 23846 23847 28
19078 23846 23848 28
19079 23846 23849 28
19080 23846 23850 28
19081 23851 23852 28
19082 23851 23853 28
19083 23851 23854 28
19084 23851 23855 28
19085 23856 23857 28
19086 23856 23858 28
19087 23856 23859 28
19088 23856 23860 28
19089 23861 23862 28
19090 23861 23863 28
19091 23861 23864 28
19092 23861 23865 28
19093 23866 23867 28
19094 23866 23868 28
19095 23866 23869 28
19096 23866 23870 28
19097 23871 23872 28
19098 23871 23873 28
19099 23871 23874 28
19100 23871 23875 28
19101 23876 23877 28
19102 23876 23878 28
19103 23876 23879 28
19104 23876 23880 28
19105 23881 23882 28
19106 23881 23883 28
19107 23881 23884 28
19108 23881 23885 28
19109 23886 23887 28
19110 23886 23888 28
19111 23886 23889 28
19112 23886 23890 28
19113 23891 23892 28
19114 23891 23893 28
19115 23891 23894 28
19116 23891 23895 28
19117 23896 23897 28
19118 23896 23898 28
19119 23896 23899 28
19120 23896 23900 28
19121 23901 23902 28
19122 23901 23903 28
19123 23901 23904 28
19124 23901 23905 28
19125 23906 23907 28
19126 23906 23908 28
19127 23906 23909 28
19128 23906 23910 28
19129 23911 23912 28
19130 23911 23913 28
19131 23911 23914 28
19132 23911 23915 28
19133 23916 23917 28
19134 23916 23918 28
19135 23916 23919 28
19136 23916 23920 28
19137 23921 23922 28
19138 23921 23923 28
19139 23921 23924 28
19140 23921 23925 28
19141 23926 23927 28
19142 23926 23928 28
19143 23926 23929 28
19144 23926 23930 28
19145 23931 23932 28
19146 23931 23933 28
19147 23931 23934 28
19148 23931 23935 28
19149 23936 23937 28
19150 23936 23938 28
19151 23936 23939 28
19152 23936 23940 28
19153 23941 23942 28
19154 23941 23943 28
19155 23941 23944 28
19156 23941 23945 28
19157 23946 23947 28
19158 23946 23948 28
19159 23946 23949 28
19160 23946 23950 28
19161 23951 23952 28
19162 23951 23953 28
19163 23951 23954 28
19164 23951 23955 28
19165 23956 23957 28
19166 23956 23958 28
19167 23956 23959 28
19168 23956 23960 28
19169 23961 23962 28
19170 23961 23963 28
19171 23961 23964 28
19172 23961 23965 28
19173 23966 23967 28
19174 23966 23968 28
19175 23966 23969 28
19176 23966 23970 28
19177 23971 23972 28
19178 23971 23973 28
19179 23971 23974 28
19180 23971 23975 28
19181 23976 23977 28
19182 23976 23978 28
19183 23976 23979 28
19184 23976 23980 28
19185 23981 23982 28
19186 23981 23983 28
19187 23981 23984 28
19188 23981 23985 28
19189 23986 23987 28
19190 23986 23988 28
19191 23986 23989 28
19192 23986 23990 28
19193 23991 23992 28
19194 23991 23993 28
19195 23991 23994 28
19196 23991 23995 28
19197 23996 23997 28
19198 23996 23998 28
19199 23996 23999 28
19200 23996 24000 28
19201 24001 24002 28
19202 24001 24003 28
19203 24001 24004 28
19204 24001 24005 28
19205 24006 24007 28
19206 24006 24008 28
19207 24006 24009 28
19208 24006 24010 28
19209 24011 24012 28
19210 24011 24013 28
19211 24011 24014 28
19212 24011 24015 28
19213 24016 24017 28
19214 24016 24018 28
19215 24016 24019 28
19216 24016 24020 28
19217 24021 24022 28
19218 24021 24023 28
19219 24021 24024 28
19220 24021 24025 28
19221 24026 24027 28
19222 24026 24028 28
19223 24026 24029 28
19224 24026 24030 28
19225 24031 24032 28
19226 24031 24033 28
19227 24031 24034 28
19228 24031 24035 28
19229 24036 24037 28
19230 24036 24038 28
19231 24036 24039 28
19232 24036 24040 28
19233 24041 24042 28
19234 24041 24043 28
19235 24041 24044 28
19236 24041 24045 28
19237 24046 24047 28
19238 24046 24048 28
19239 24046 24049 28
19240 24046 24050 28
19241 24051 24052 28
19242 24051 24053 28
19243 24051 24054 28
19244 24051 24055 28
19245 24056 24057 28
19246 24056 24058 28
19247 24056 24059 28
19248 24056 24060 28
19249 24061 24062 28
19250 24061 24063 28
19251 24061 24064 28
19252 24061 24065 28
19253 24066 24067 28
19254 24066 24068 28
19255 24066 24069 28
19256 24066 24070 28
19257 24071 24072 28
19258 24071 24073 28
19259 24071 24074 28
19260 24071 24075 28
19261 24076 24077 28
19262 24076 24078 28
19263 24076 24079 28
19264 24076 24080 28
19265 24081 24082 28
19266 24081 24083 28
19267 24081 24084 28
19268 24081 24085 28
19269 24086 24087 28
19270 24086 24088 28
19271 24086 24089 28
19272 24086 24090 28
19273 24091 24092 28
19274 24091 24093 28
19275 24091 24094 28
19276 24091 24095 28
19277 24096 24097 28
19278 24096 24098 28
19279 24096 24099 28
19280 24096 24100 28
19281 24101 24102 28
19282 24101 24103 28
19283 24101 24104 28
19284 24101 24105 28
19285 24106 24107 28
19286 24106 24108 28
19287 24106 24109 28
19288 24106 24110 28
19289 24111 24112 28
19290 24111 24113 28
19291 24111 24114 28
19292 24111 24115 28
19293 24116 24117 28
19294 24116 24118 28
19295 24116 24119 28
19296 24116 24120 28
19297 24121 24122 28
19298 24121 24123 28
19299 24121 24124 28
19300 24121 24125 28
19301 24126 24127 28
19302 24126 24128 28
19303 24126 24129 28
19304 24126 24130 28
19305 24131 24132 28
19306 24131 24133 28
19307 24131 24134 28
19308 24131 24135 28
19309 24136 24137 28
19310 24136 24138 28
19311 24136 24139 28
19312 24136 24140 28
19313 24141 24142 28
19314 24141 24143 28
19315 24141 24144 28
19316 24141 24145 28
19317 24146 24147 28
19318 24146 24148 28
19319 24146 24149 28
19320 24146 24150 28
19321 24151 24152 28
19322 24151 24153 28
19323 24151 24154 28
19324 24151 24155 28
19325 24156 24157 28
19326 24156 24158 28
19327 24156 24159 28
19328 24156 24160 28
19329 24161 24162 28
19330 24161 24163 28
19331 24161 24164 28
19332 24161 24165 28
19333 24166 24167 28
19334 24166 24168 28
19335 24166 24169 28
19336 24166 24170 28
19337 24171 24172 28
19338 24171 24173 28
19339 24171 24174 28
19340 24171 24175 28
19341 24176 24177 28
19342 24176 24178 28
19343 24176 24179 28
19344 24176 24180 28
19345 24181 24182 28
19346 24181 24183 28
19347 24181 24184 28
19348 24181 24185 28
19349 24186 24187 28
19350 24186 24188 28
19351 24186 24189 28
19352 24186 24190 28
19353 24191 24192 28
19354 24191 24193 28
19355 24191 24194 28
19356 24191 24195 28
19357 24196 24197 28
19358 24196 24198 28
19359 24196 24199 28
19360 24196 24200 28
19361 24201 24202 28
19362 24201 24203 28
19363 24201 24204 28
19364 24201 24205 28
19365 24206 24207 28
19366 24206 24208 28
19367 24206 24209 28
19368 24206 24210 28
19369 24211 24212 28
19370 24211 24213 28
19371 24211 24214 28
19372 24211 24215 28
19373 24216 24217 28
19374 24216 24218 28
19375 24216 24219 28
19376 24216 24220 28
19377 24221 24222 28
19378 24221 24223 28
19379 24221 24224 28
19380 24221 24225 28
19381 24226 24227 28
19382 24226 24228 28
19383 24226 24229 28
19384 24226 24230 28
19385 24231 24232 28
19386 24231 24233 28
19387 24231 24234 28
19388 24231 24235 28
19389 24236 24237 28
19390 24236 24238 28
19391 24236 24239 28
19392 24236 24240 28
19393 24241 24242 28
19394 24241 24243 28
19395 24241 24244 28
19396 24241 24245 28
19397 24246 24247 28
19398 24246 24248 28
19399 24246 24249 28
19400 24246 24250 28
19401 24251 24252 28
19402 24251 24253 28
19403 24251 24254 28
19404 24251 24255 28
19405 24256 24257 28
19406 24256 24258 28
19407 24256 24259 28
19408 24256 24260 28
19409 24261 24262 28
19410 24261 24263 28
19411 24261 24264 28
19412 24261 24265 28
19413 24266 24267 28
19414 24266 24268 28
19415 24266 24269 28
19416 24266 24270 28
19417 24271 24272 28
19418 24271 24273 28
19419 24271 24274 28
19420 24271 24275 28
19421 24276 24277 28
19422 24276 24278 28
19423 24276 24279 28
19424 24276 24280 28
19425 24281 24282 28
19426 24281 24283 28
19427 24281 24284 28
19428 24281 24285 28
19429 24286 24287 28
19430 24286 24288 28
19431 24286 24289 28
19432 24286 24290 28
19433 24291 24292 28
19434 24291 24293 28
19435 24291 24294 28
19436 24291 24295 28
19437 24296 24297 28
19438 24296 24298 28
19439 24296 24299 28
19440 24296 24300 28
19441 24301 24302 28
19442 24301 24303 28
19443 24301 24304 28
19444 24301 24305 28
19445 24306 24307 28
19446 24306 24308 28
19447 24306 24309 28
19448 24306 24310 28
19449 24311 24312 28
19450 24311 24313 28
19451 24311 24314 28
19452 24311 24315 28
19453 24316 24317 28
19454 24316 24318 28
19455 24316 24319 28
19456 24316 24320 28
19457 24321 24322 28
19458 24321 24323 28
19459 24321 24324 28
19460 24321 24325 28
19461 24326 24327 28
19462 24326 24328 28
19463 24326 24329 28
19464 24326 24330 28
19465 24331 24332 28
19466 24331 24333 28
19467 24331 24334 28
19468 24331 24335 28
19469 24336 24337 28
19470 24336 24338 28
19471 24336 24339 28
19472 24336 24340 28
19473 24341 24342 28
19474 24341 24343 28
19475 24341 24344 28
19476 24341 24345 28
19477 24346 24347 28
19478 24346 24348 28
19479 24346 24349 28
19480 24346 24350 28
19481 24351 24352 28
19482 24351 24353 28
19483 24351 24354 28
19484 24351 24355 28
19485 24356 24357 28
19486 24356 24358 28
19487 24356 24359 28
19488 24356 24360 28
19489 24361 24362 28
19490 24361 24363 28
19491 24361 24364 28
19492 24361 24365 28
19493 24366 24367 28
19494 24366 24368 28
19495 24366 24369 28
19496 24366 24370 28
19497 24371 24372 28
19498 24371 24373 28
19499 24371 24374 28
19500 24371 24375 28
19501 24376 24377 28
19502 24376 24378 28
19503 24376 24379 28
19504 24376 24380 28
19505 24381 24382 28
19506 24381 24383 28
19507 24381 24384 28
19508 24381 24385 28
19509 24386 24387 28
19510 24386 24388 28
19511 24386 24389 28
19512 24386 24390 28
19513 24391 24392 28
19514 24391 24393 28
19515 24391 24394 28
19516 24391 24395 28
19517 24396 24397 28
19518 24396 24398 28
19519 24396 24399 28
19520 24396 24400 28
19521 24401 24402 28
19522 24401 24403 28
19523 24401 24404 28
19524 24401 24405 28
19525 24406 24407 28
19526 24406 24408 28
19527 24406 24409 28
19528 24406 24410 28
19529 24411 24412 28
19530 24411 24413 28
19531 24411 24414 28
19532 24411 24415 28
19533 24416 24417 28
19534 24416 24418 28
19535 24416 24419 28
19536 24416 24420 28
19537 24421 24422 28
19538 24421 24423 28
19539 24421 24424 28
19540 24421 24425 28
19541 24426 24427 28
19542 24426 24428 28
19543 24426 24429 28
19544 24426 24430 28
19545 24431 24432 28
19546 24431 24433 28
19547 24431 24434 28
19548 24431 24435 28
19549 24436 24437 28
19550 24436 24438 28
19551 24436 24439 28
19552 24436 24440 28
19553 24441 24442 28
19554 24441 24443 28
19555 24441 24444 28
19556 24441 24445 28
19557 24446 24447 28
19558 24446 24448 28
19559 24446 24449 28
19560 24446 24450 28
19561 24451 24452 28
19562 24451 24453 28
19563 24451 24454 28
19564 24451 24455 28
19565 24456 24457 28
19566 24456 24458 28
19567 24456 24459 28
19568 24456 24460 28
19569 24461 24462 28
19570 24461 24463 28
19571 24461 24464 28
19572 24461 24465 28
19573 24466 24467 28
19574 24466 24468 28
19575 24466 24469 28
19576 24466 24470 28
19577 24471 24472 28
19578 24471 24473 28
19579 24471 24474 28
19580 24471 24475 28
19581 24476 24477 28
19582 24476 24478 28
19583 24476 24479 28
19584 24476 24480 28
19585 24481 24482 28
19586 24481 24483 28
19587 24481 24484 28
19588 24481 24485 28
19589 24486 24487 28
19590 24486 24488 28
19591 24486 24489 28
19592 24486 24490 28
19593 24491 24492 28
19594 24491 24493 28
19595 24491 24494 28
19596 24491 24495 28
19597 24496 24497 28
19598 24496 24498 28
19599 24496 24499 28
19600 24496 24500 28
19601 24501 24502 28
19602 24501 24503 28
19603 24501 24504 28
19604 24501 24505 28
19605 24506 24507 28
19606 24506 24508 28
19607 24506 24509 28
19608 24506 24510 28
19609 24511 24512 28
19610 24511 24513 28
19611 24511 24514 28
19612 24511 24515 28
19613 24516 24517 28
19614 24516 24518 28
19615 24516 24519 28
19616 24516 24520 28
19617 24521 24522 28
19618 24521 24523 28
19619 24521 24524 28
19620 24521 24525 28
19621 24526 24527 28
19622 24526 24528 28
19623 24526 24529 28
19624 24526 24530 28
19625 24531 24532 28
19626 24531 24533 28
19627 24531 24534 28
19628 24531 24535 28
19629 24536 24537 28
19630 24536 24538 28
19631 24536 24539 28
19632 24536 24540 28
19633 24541 24542 28
19634 24541 24543 28
19635 24541 24544 28
19636 24541 24545 28
19637 24546 24547 28
19638 24546 24548 28
19639 24546 24549 28
19640 24546 24550 28
19641 24551 24552 28
19642 24551 24553 28
19643 24551 24554 28
19644 24551 24555 28
19645 24556 24557 28
19646 24556 24558 28
19647 24556 24559 28
19648 24556 24560 28
19649 24561 24562 28
19650 24561 24563 28
19651 24561 24564 28
19652 24561 24565 28
19653 24566 24567 28
19654 24566 24568 28
19655 24566 24569 28
19656 24566 24570 28
19657 24571 24572 28
19658 24571 24573 28
19659 24571 24574 28
19660 24571 24575 28
19661 24576 24577 28
19662 24576 24578 28
19663 24576 24579 28
19664 24576 24580 28
19665 24581 24582 28
19666 24581 24583 28
19667 24581 24584 28
19668 24581 24585 28
19669 24586 24587 28
19670 24586 24588 28
19671 24586 24589 28
19672 24586 24590 28
19673 24591 24592 28
19674 24591 24593 28
19675 24591 24594 28
19676 24591 24595 28
19677 24596 24597 28
19678 24596 24598 28
19679 24596 24599 28
19680 24596 24600 28
19681 24601 24602 28
19682 24601 24603 28
19683 24601 24604 28
19684 24601 24605 28
19685 24606 24607 28
19686 24606 24608 28
19687 24606 24609 28
19688 24606 24610 28
19689 24611 24612 28
19690 24611 24613 28
19691 24611 24614 28
19692 24611 24615 28
19693 24616 24617 28
19694 24616 24618 28
19695 24616 24619 28
19696 24616 24620 28
19697 24621 24622 28
19698 24621 24623 28
19699 24621 24624 28
19700 24621 24625 28
19701 24626 24627 28
19702 24626 24628 28
19703 24626 24629 28
19704 24626 24630 28
19705 24631 24632 28
19706 24631 24633 28
19707 24631 24634 28
19708 24631 24635 28
19709 24636 24637 28
19710 24636 24638 28
19711 24636 24639 28
19712 24636 24640 28
19713 24641 24642 28
19714 24641 24643 28
19715 24641 24644 28
19716 24641 24645 28
19717 24646 24647 28
19718 24646 24648 28
19719 24646 24649 28
19720 24646 24650 28
19721 24651 24652 28
19722 24651 24653 28
19723 24651 24654 28
19724 24651 24655 28
19725 24656 24657 28
19726 24656 24658 28
19727 24656 24659 28
19728 24656 24660 28
19729 24661 24662 28
19730 24661 24663 28
19731 24661 24664 28
19732 24661 24665 28
19733 24666 24667 28
19734 24666 24668 28
19735 24666 24669 28
19736 24666 24670 28
19737 24671 24672 28
19738 24671 24673 28
19739 24671 24674 28
19740 24671 24675 28
19741 24676 24677 28
19742 24676 24678 28
19743 24676 24679 28
19744 24676 24680 28
19745 24681 24682 28
19746 24681 24683 28
19747 24681 24684 28
19748 24681 24685 28
19749 24686 24687 28
19750 24686 24688 28
19751 24686 24689 28
19752 24686 24690 28
19753 24691 24692 28
19754 24691 24693 28
19755 24691 24694 28
19756 24691 24695 28
19757 24696 24697 28
19758 24696 24698 28
19759 24696 24699 28
19760 24696 24700 28
19761 24701 24702 28
19762 24701 24703 28
19763 24701 24704 28
19764 24701 24705 28
19765 24706 24707 28
19766 24706 24708 28
19767 24706 24709 28
19768 24706 24710 28
19769 24711 24712 28
19770 24711 24713 28
19771 24711 24714 28
19772 24711 24715 28
19773 24716 24717 28
19774 24716 24718 28
19775 24716 24719 28
19776 24716 24720 28
19777 24721 24722 28
19778 24721 24723 28
19779 24721 24724 28
19780 24721 24725 28
19781 24726 24727 28
19782 24726 24728 28
19783 24726 24729 28
19784 24726 24730 28
19785 24731 24732 28
19786 24731 24733 28
19787 24731 24734 28
19788 24731 24735 28
19789 24736 24737 28
19790 24736 24738 28
19791 24736 24739 28
19792 24736 24740 28
19793 24741 24742 28
19794 24741 24743 28
19795 24741 24744 28
19796 24741 24745 28
19797 24746 24747 28
19798 24746 24748 28
19799 24746 24749 28
19800 24746 24750 28
19801 24751 24752 28
19802 24751 24753 28
19803 24751 24754 28
19804 24751 24755 28
19805 24756 24757 28
19806 24756 24758 28
19807 24756 24759 28
19808 24756 24760 28
19809 24761 24762 28
19810 24761 24763 28
19811 24761 24764 28
19812 24761 24765 28
19813 24766 24767 28
19814 24766 24768 28
19815 24766 24769 28
19816 24766 24770 28
19817 24771 24772 28
19818 24771 24773 28
19819 24771 24774 28
19820 24771 24775 28
19821 24776 24777 28
19822 24776 24778 28
19823 24776 24779 28
19824 24776 24780 28
19825 24781 24782 28
19826 24781 24783 28
19827 24781 24784 28
19828 24781 24785 28
19829 24786 24787 28
19830 24786 24788 28
19831 24786 24789 28
19832 24786 24790 28
19833 24791 24792 28
19834 24791 24793 28
19835 24791 24794 28
19836 24791 24795 28
19837 24796 24797 28
19838 24796 24798 28
19839 24796 24799 28
19840 24796 24800 28
19841 24801 24802 28
19842 24801 24803 28
19843 24801 24804 28
19844 24801 24805 28
19845 24806 24807 28
19846 24806 24808 28
19847 24806 24809 28
19848 24806 24810 28
19849 24811 24812 28
19850 24811 24813 28
19851 24811 24814 28
19852 24811 24815 28
19853 24816 24817 28
19854 24816 24818 28
19855 24816 24819 28
19856 24816 24820 28
19857 24821 24822 28
19858 24821 24823 28
19859 24821 24824 28
19860 24821 24825 28
19861 24826 24827 28
19862 24826 24828 28
19863 24826 24829 28
19864 24826 24830 28
19865 24831 24832 28
19866 24831 24833 28
19867 24831 24834 28
19868 24831 24835 28
19869 24836 24837 28
19870 24836 24838 28
19871 24836 24839 28
19872 24836 24840 28
19873 24841 24842 28
19874 24841 24843 28
19875 24841 24844 28
19876 24841 24845 28
19877 24846 24847 28
19878 24846 24848 28
19879 24846 24849 28
19880 24846 24850 28
19881 24851 24852 28
19882 24851 24853 28
19883 24851 24854 28
19884 24851 24855 28
19885 24856 24857 28
19886 24856 24858 28
19887 24856 24859 28
19888 24856 24860 28
19889 24861 24862 28
19890 24861 24863 28
19891 24861 24864 28
19892 24861 24865 28
19893 24866 24867 28
19894 24866 24868 28
19895 24866 24869 28
19896 24866 24870 28
19897 24871 24872 28
19898 24871 24873 28
19899 24871 24874 28
19900 24871 24875 28
19901 24876 24877 28
19902 24876 24878 28
19903 24876 24879 28
19904 24876 24880 28
19905 24881 24882 28
19906 24881 24883 28
19907 24881 24884 28
19908 24881 24885 28
19909 24886 24887 28
19910 24886 24888 28
19911 24886 24889 28
19912 24886 24890 28
19913 24891 24892 28
19914 24891 24893 28
19915 24891 24894 28
19916 24891 24895 28
19917 24896 24897 28
19918 24896 24898 28
19919 24896 24899 28
19920 24896 24900 28
19921 24901 24902 28
19922 24901 24903 28
19923 24901 24904 28
19924 24901 24905 28
19925 24906 24907 28
19926 24906 24908 28
19927 24906 24909 28
19928 24906 24910 28
19929 24911 24912 28
19930 24911 24913 28
19931 24911 24914 28
19932 24911 24915 28
19933 24916 24917 28
19934 24916 24918 28
19935 24916 24919 28
19936 24916 24920 28
19937 24921 24922 28
19938 24921 24923 28
19939 24921 24924 28
19940 24921 24925 28
19941 24926 24927 28
19942 24926 24928 28
19943 24926 24929 28
19944 24926 24930 28
19945 24931 24932 28
19946 24931 24933 28
19947 24931 24934 28
19948 24931 24935 28
19949 24936 24937 28
19950 24936 24938 28
19951 24936 24939 28
19952 24936 24940 28
19953 24941 24942 28
19954 24941 24943 28
19955 24941 24944 28
19956 24941 24945 28
19957 24946 24947 28
19958 24946 24948 28
19959 24946 24949 28
19960 24946 24950 28
19961 24951 24952 28
19962 24951 24953 28
19963 24951 24954 28
19964 24951 24955 28
19965 24956 24957 28
19966 24956 24958 28
19967 24956 24959 28
19968 24956 24960 28
19969 24961 24962 28
19970 24961 24963 28
19971 24961 24964 28
19972 24961 24965 28
19973 24966 24967 28
19974 24966 24968 28
19975 24966 24969 28
19976 24966 24970 28
19977 24971 24972 28
19978 24971 24973 28
19979 24971 24974 28
19980 24971 24975 28
19981 24976 24977 28
19982 24976 24978 28
19983 24976 24979 28
19984 24976 24980 28
19985 24981 24982 28
19986 24981 24983 28
19987 24981 24984 28
19988 24981 24985 28
19989 24986 24987 28
19990 24986 24988 28
19991 24986 24989 28
19992 24986 24990 28
19993 24991 24992 28
19994 24991 24993 28
19995 24991 24994 28
19996 24991 24995 28
19997 24996 24997 28
19998 24996 24998 28
19999 24996 24999 28
20000 24996 25000 28
20001 25001 25002 28
20002 25001 25003 28
20003 25001 25004 28
20004 25001 25005 28
20005 25006 25007 28
20006 25006 25008 28
20007 25006 25009 28
20008 25006 25010 28
20009 25011 25012 28
20010 25011 25013 28
20011 25011 25014 28
20012 25011 25015 28
20013 25016 25017 28
20014 25016 25018 28
20015 25016 25019 28
20016 25016 25020 28
20017 25021 25022 28
20018 25021 25023 28
20019 25021 25024 28
20020 25021 25025 28
20021 25026 25027 28
20022 25026 25028 28
20023 25026 25029 28
20024 25026 25030 28
20025 25031 25032 28
20026 25031 25033 28
20027 25031 25034 28
20028 25031 25035 28
20029 25036 25037 28
20030 25036 25038 28
20031 25036 25039 28
20032 25036 25040 28
20033 25041 25042 28
20034 25041 25043 28
20035 25041 25044 28
20036 25041 25045 28
20037 25046 25047 28
20038 25046 25048 28
20039 25046 25049 28
20040 25046 25050 28
20041 25051 25052 28
20042 25051 25053 28
20043 25051 25054 28
20044 25051 25055 28
20045 25056 25057 28
20046 25056 25058 28
20047 25056 25059 28
20048 25056 25060 28
20049 25061 25062 28
20050 25061 25063 28
20051 25061 25064 28
20052 25061 25065 28
20053 25066 25067 28
20054 25066 25068 28
20055 25066 25069 28
20056 25066 25070 28
20057 25071 25072 28
20058 25071 25073 28
20059 25071 25074 28
20060 25071 25075 28
20061 25076 25077 28
20062 25076 25078 28
20063 25076 25079 28
20064 25076 25080 28
20065 25081 25082 28
20066 25081 25083 28
20067 25081 25084 28
20068 25081 25085 28
20069 25086 25087 28
20070 25086 25088 28
20071 25086 25089 28
20072 25086 25090 28
20073 25091 25092 28
20074 25091 25093 28
20075 25091 25094 28
20076 25091 25095 28
20077 25096 25097 28
20078 25096 25098 28
20079 25096 25099 28
20080 25096 25100 28
20081 25101 25102 28
20082 25101 25103 28
20083 25101 25104 28
20084 25101 25105 28
20085 25106 25107 28
20086 25106 25108 28
20087 25106 25109 28
20088 25106 25110 28
20089 25111 25112 28
20090 25111 25113 28
20091 25111 25114 28
20092 25111 25115 28
20093 25116 25117 28
20094 25116 25118 28
20095 25116 25119 28
20096 25116 25120 28
20097 25121 25122 28
20098 25121 25123 28
20099 25121 25124 28
20100 25121 25125 28
20101 25126 25127 28
20102 25126 25128 28
20103 25126 25129 28
20104 25126 25130 28
20105 25131 25132 28
20106 25131 25133 28
20107 25131 25134 28
20108 25131 25135 28
20109 25136 25137 28
20110 25136 25138 28
20111 25136 25139 28
20112 25136 25140 28
20113 25141 25142 28
20114 25141 25143 28
20115 25141 25144 28
20116 25141 25145 28
20117 25146 25147 28
20118 25146 25148 28
20119 25146 25149 28
20120 25146 25150 28
20121 25151 25152 28
20122 25151 25153 28
20123 25151 25154 28
20124 25151 25155 28
20125 25156 25157 28
20126 25156 25158 28
20127 25156 25159 28
20128 25156 25160 28
20129 25161 25162 28
20130 25161 25163 28
20131 25161 25164 28
20132 25161 25165 28
20133 25166 25167 28
20134 25166 25168 28
20135 25166 25169 28
20136 25166 25170 28
20137 25171 25172 28
20138 25171 25173 28
20139 25171 25174 28
20140 25171 25175 28
20141 25176 25177 28
20142 25176 25178 28
20143 25176 25179 28
20144 25176 25180 28
20145 25181 25182 28
20146 25181 25183 28
20147 25181 25184 28
20148 25181 25185 28
20149 25186 25187 28
20150 25186 25188 28
20151 25186 25189 28
20152 25186 25190 28
20153 25191 25192 28
20154 25191 25193 28
20155 25191 25194 28
20156 25191 25195 28
20157 25196 25197 28
20158 25196 25198 28
20159 25196 25199 28
20160 25196 25200 28
20161 25201 25202 28
20162 25201 25203 28
20163 25201 25204 28
20164 25201 25205 28
20165 25206 25207 28
20166 25206 25208 28
20167 25206 25209 28
20168 25206 25210 28
20169 25211 25212 28
20170 25211 25213 28
20171 25211 25214 28
20172 25211 25215 28
20173 25216 25217 28
20174 25216 25218 28
20175 25216 25219 28
20176 25216 25220 28
20177 25221 25222 28
20178 25221 25223 28
20179 25221 25224 28
20180 25221 25225 28
20181 25226 25227 28
20182 25226 25228 28
20183 25226 25229 28
20184 25226 25230 28
20185 25231 25232 28
20186 25231 25233 28
20187 25231 25234 28
20188 25231 25235 28
20189 25236 25237 28
20190 25236 25238 28
20191 25236 25239 28
20192 25236 25240 28
20193 25241 25242 28
20194 25241 25243 28
20195 25241 25244 28
20196 25241 25245 28
20197 25246 25247 28
20198 25246 25248 28
20199 25246 25249 28
20200 25246 25250 28
20201 25251 25252 28
20202 25251 25253 28
20203 25251 25254 28
20204 25251 25255 28
20205 25256 25257 28
20206 25256 25258 28
20207 25256 25259 28
20208 25256 25260 28
20209 25261 25262 28
20210 25261 25263 28
20211 25261 25264 28
20212 25261 25265 28
20213 25266 25267 28
20214 25266 25268 28
20215 25266 25269 28
20216 25266 25270 28
20217 25271 25272 28
20218 25271 25273 28
20219 25271 25274 28
20220 25271 25275 28
20221 25276 25277 28
20222 25276 25278 28
20223 25276 25279 28
20224 25276 25280 28
20225 25281 25282 28
20226 25281 25283 28
20227 25281 25284 28
20228 25281 25285 28
20229 25286 25287 28
20230 25286 25288 28
20231 25286 25289 28
20232 25286 25290 28
20233 25291 25292 28
20234 25291 25293 28
20235 25291 25294 28
20236 25291 25295 28
20237 25296 25297 28
20238 25296 25298 28
20239 25296 25299 28
20240 25296 25300 28
20241 25301 25302 28
20242 25301 25303 28
20243 25301 25304 28
20244 25301 25305 28
20245 25306 25307 28
20246 25306 25308 28
20247 25306 25309 28
20248 25306 25310 28
20249 25311 25312 28
20250 25311 25313 28
20251 25311 25314 28
20252 25311 25315 28
20253 25316 25317 28
20254 25316 25318 28
20255 25316 25319 28
20256 25316 25320 28
20257 25321 25322 28
20258 25321 25323 28
20259 25321 25324 28
20260 25321 25325 28
20261 25326 25327 28
20262 25326 25328 28
20263 25326 25329 28
20264 25326 25330 28
20265 25331 25332 28
20266 25331 25333 28
20267 25331 25334 28
20268 25331 25335 28
20269 25336 25337 28
20270 25336 25338 28
20271 25336 25339 28
20272 25336 25340 28
20273 25341 25342 28
20274 25341 25343 28
20275 25341 25344 28
20276 25341 25345 28
20277 25346 25347 28
20278 25346 25348 28
20279 25346 25349 28
20280 25346 25350 28
20281 25351 25352 28
20282 25351 25353 28
20283 25351 25354 28
20284 25351 25355 28
20285 25356 25357 28
20286 25356 25358 28
20287 25356 25359 28
20288 25356 25360 28
20289 25361 25362 28
20290 25361 25363 28
20291 25361 25364 28
20292 25361 25365 28
20293 25366 25367 28
20294 25366 25368 28
20295 25366 25369 28
20296 25366 25370 28
20297 25371 25372 28
20298 25371 25373 28
20299 25371 25374 28
20300 25371 25375 28
20301 25376 25377 28
20302 25376 25378 28
20303 25376 25379 28
20304 25376 25380 28
20305 25381 25382 28
20306 25381 25383 28
20307 25381 25384 28
20308 25381 25385 28
20309 25386 25387 28
20310 25386 25388 28
20311 25386 25389 28
20312 25386 25390 28
20313 25391 25392 28
20314 25391 25393 28
20315 25391 25394 28
20316 25391 25395 28
20317 25396 25397 28
20318 25396 25398 28
20319 25396 25399 28
20320 25396 25400 28
20321 25401 25402 28
20322 25401 25403 28
20323 25401 25404 28
20324 25401 25405 28
20325 25406 25407 28
20326 25406 25408 28
20327 25406 25409 28
20328 25406 25410 28
20329 25411 25412 28
20330 25411 25413 28
20331 25411 25414 28
20332 25411 25415 28
20333 25416 25417 28
20334 25416 25418 28
20335 25416 25419 28
20336 25416 25420 28
20337 25421 25422 28
20338 25421 25423 28
20339 25421 25424 28
20340 25421 25425 28
20341 25426 25427 28
20342 25426 25428 28
20343 25426 25429 28
20344 25426 25430 28
20345 25431 25432 28
20346 25431 25433 28
20347 25431 25434 28
20348 25431 25435 28
20349 25436 25437 28
20350 25436 25438 28
20351 25436 25439 28
20352 25436 25440 28
20353 25441 25442 28
20354 25441 25443 28
20355 25441 25444 28
20356 25441 25445 28
20357 25446 25447 28
20358 25446 25448 28
20359 25446 25449 28
20360 25446 25450 28
20361 25451 25452 28
20362 25451 25453 28
20363 25451 25454 28
20364 25451 25455 28
20365 25456 25457 28
20366 25456 25458 28
20367 25456 25459 28
20368 25456 25460 28
20369 25461 25462 28
20370 25461 25463 28
20371 25461 25464 28
20372 25461 25465 28
20373 25466 25467 28
20374 25466 25468 28
20375 25466 25469 28
20376 25466 25470 28
20377 25471 25472 28
20378 25471 25473 28
20379 25471 25474 28
20380 25471 25475 28
20381 25476 25477 28
20382 25476 25478 28
20383 25476 25479 28
20384 25476 25480 28
20385 25481 25482 28
20386 25481 25483 28
20387 25481 25484 28
20388 25481 25485 28
20389 25486 25487 28
20390 25486 25488 28
20391 25486 25489 28
20392 25486 25490 28
20393 25491 25492 28
20394 25491 25493 28
20395 25491 25494 28
20396 25491 25495 28
20397 25496 25497 28
20398 25496 25498 28
20399 25496 25499 28
20400 25496 25500 28
20401 25501 25502 28
20402 25501 25503 28
20403 25501 25504 28
20404 25501 25505 28
20405 25506 25507 28
20406 25506 25508 28
20407 25506 25509 28
20408 25506 25510 28
20409 25511 25512 28
20410 25511 25513 28
20411 25511 25514 28
20412 25511 25515 28
20413 25516 25517 28
20414 25516 25518 28
20415 25516 25519 28
20416 25516 25520 28
20417 25521 25522 28
20418 25521 25523 28
20419 25521 25524 28
20420 25521 25525 28
20421 25526 25527 28
20422 25526 25528 28
20423 25526 25529 28
20424 25526 25530 28
20425 25531 25532 28
20426 25531 25533 28
20427 25531 25534 28
20428 25531 25535 28
20429 25536 25537 28
20430 25536 25538 28
20431 25536 25539 28
20432 25536 25540 28
20433 25541 25542 28
20434 25541 25543 28
20435 25541 25544 28
20436 25541 25545 28
20437 25546 25547 28
20438 25546 25548 28
20439 25546 25549 28
20440 25546 25550 28
20441 25551 25552 28
20442 25551 25553 28
20443 25551 25554 28
20444 25551 25555 28
20445 25556 25557 28
20446 25556 25558 28
20447 25556 25559 28
20448 25556 25560 28
20449 25561 25562 28
20450 25561 25563 28
20451 25561 25564 28
20452 25561 25565 28
20453 25566 25567 28
20454 25566 25568 28
20455 25566 25569 28
20456 25566 25570 28
20457 25571 25572 28
20458 25571 25573 28
20459 25571 25574 28
20460 25571 25575 28
20461 25576 25577 28
20462 25576 25578 28
20463 25576 25579 28
20464 25576 25580 28
20465 25581 25582 28
20466 25581 25583 28
20467 25581 25584 28
20468 25581 25585 28
20469 25586 25587 28
20470 25586 25588 28
20471 25586 25589 28
20472 25586 25590 28
20473 25591 25592 28
20474 25591 25593 28
20475 25591 25594 28
20476 25591 25595 28
20477 25596 25597 28
20478 25596 25598 28
20479 25596 25599 28
20480 25596 25600 28
20481 25601 25602 28
20482 25601 25603 28
20483 25601 25604 28
20484 25601 25605 28
20485 25606 25607 28
20486 25606 25608 28
20487 25606 25609 28
20488 25606 25610 28
20489 25611 25612 28
20490 25611 25613 28
20491 25611 25614 28
20492 25611 25615 28
20493 25616 25617 28
20494 25616 25618 28
20495 25616 25619 28
20496 25616 25620 28
20497 25621 25622 28
20498 25621 25623 28
20499 25621 25624 28
20500 25621 25625 28
20501 25626 25627 28
20502 25626 25628 28
20503 25626 25629 28
20504 25626 25630 28
20505 25631 25632 28
20506 25631 25633 28
20507 25631 25634 28
20508 25631 25635 28
20509 25636 25637 28
20510 25636 25638 28
20511 25636 25639 28
20512 25636 25640 28
20513 25641 25642 28
20514 25641 25643 28
20515 25641 25644 28
20516 25641 25645 28
20517 25646 25647 28
20518 25646 25648 28
20519 25646 25649 28
20520 25646 25650 28
20521 25651 25652 28
20522 25651 25653 28
20523 25651 25654 28
20524 25651 25655 28
20525 25656 25657 28
20526 25656 25658 28
20527 25656 25659 28
20528 25656 25660 28
20529 25661 25662 28
20530 25661 25663 28
20531 25661 25664 28
20532 25661 25665 28
20533 25666 25667 28
20534 25666 25668 28
20535 25666 25669 28
20536 25666 25670 28
20537 25671 25672 28
20538 25671 25673 28
20539 25671 25674 28
20540 25671 25675 28
20541 25676 25677 28
20542 25676 25678 28
20543 25676 25679 28
20544 25676 25680 28
20545 25681 25682 28
20546 25681 25683 28
20547 25681 25684 28
20548 25681 25685 28
20549 25686 25687 28
20550 25686 25688 28
20551 25686 25689 28
20552 25686 25690 28
20553 25691 25692 28
20554 25691 25693 28
20555 25691 25694 28
20556 25691 25695 28
20557 25696 25697 28
20558 25696 25698 28
20559 25696 25699 28
20560 25696 25700 28
20561 25701 25702 28
20562 25701 25703 28
20563 25701 25704 28
20564 25701 25705 28
20565 25706 25707 28
20566 25706 25708 28
20567 25706 25709 28
20568 25706 25710 28
20569 25711 25712 28
20570 25711 25713 28
20571 25711 25714 28
20572 25711 25715 28
20573 25716 25717 28
20574 25716 25718 28
20575 25716 25719 28
20576 25716 25720 28
20577 25721 25722 28
20578 25721 25723 28
20579 25721 25724 28
20580 25721 25725 28
20581 25726 25727 28
20582 25726 25728 28
20583 25726 25729 28
20584 25726 25730 28
20585 25731 25732 28
20586 25731 25733 28
20587 25731 25734 28
20588 25731 25735 28
20589 25736 25737 28
20590 25736 25738 28
20591 25736 25739 28
20592 25736 25740 28
20593 25741 25742 28
20594 25741 25743 28
20595 25741 25744 28
20596 25741 25745 28
20597 25746 25747 28
20598 25746 25748 28
20599 25746 25749 28
20600 25746 25750 28
20601 25751 25752 28
20602 25751 25753 28
20603 25751 25754 28
20604 25751 25755 28
20605 25756 25757 28
20606 25756 25758 28
20607 25756 25759 28
20608 25756 25760 28
20609 25761 25762 28
20610 25761 25763 28
20611 25761 25764 28
20612 25761 25765 28
20613 25766 25767 28
20614 25766 25768 28
20615 25766 25769 28
20616 25766 25770 28
20617 25771 25772 28
20618 25771 25773 28
20619 25771 25774 28
20620 25771 25775 28
20621 25776 25777 28
20622 25776 25778 28
20623 25776 25779 28
20624 25776 25780 28
20625 25781 25782 28
20626 25781 25783 28
20627 25781 25784 28
20628 25781 25785 28
20629 25786 25787 28
20630 25786 25788 28
20631 25786 25789 28
20632 25786 25790 28
20633 25791 25792 28
20634 25791 25793 28
20635 25791 25794 28
20636 25791 25795 28
20637 25796 25797 28
20638 25796 25798 28
20639 25796 25799 28
20640 25796 25800 28
20641 25801 25802 28
20642 25801 25803 28
20643 25801 25804 28
20644 25801 25805 28
20645 25806 25807 28
20646 25806 25808 28
20647 25806 25809 28
20648 25806 25810 28
20649 25811 25812 28
20650 25811 25813 28
20651 25811 25814 28
20652 25811 25815 28
20653 25816 25817 28
20654 25816 25818 28
20655 25816 25819 28
20656 25816 25820 28
20657 25821 25822 28
20658 25821 25823 28
20659 25821 25824 28
20660 25821 25825 28
20661 25826 25827 28
20662 25826 25828 28
20663 25826 25829 28
20664 25826 25830 28
20665 25831 25832 28
20666 25831 25833 28
20667 25831 25834 28
20668 25831 25835 28
20669 25836 25837 28
20670 25836 25838 28
20671 25836 25839 28
20672 25836 25840 28
20673 25841 25842 28
20674 25841 25843 28
20675 25841 25844 28
20676 25841 25845 28
20677 25846 25847 28
20678 25846 25848 28
20679 25846 25849 28
20680 25846 25850 28
20681 25851 25852 28
20682 25851 25853 28
20683 25851 25854 28
20684 25851 25855 28
20685 25856 25857 28
20686 25856 25858 28
20687 25856 25859 28
20688 25856 25860 28
20689 25861 25862 28
20690 25861 25863 28
20691 25861 25864 28
20692 25861 25865 28
20693 25866 25867 28
20694 25866 25868 28
20695 25866 25869 28
20696 25866 25870 28
20697 25871 25872 28
20698 25871 25873 28
20699 25871 25874 28
20700 25871 25875 28
20701 25876 25877 28
20702 25876 25878 28
20703 25876 25879 28
20704 25876 25880 28
20705 25881 25882 28
20706 25881 25883 28
20707 25881 25884 28
20708 25881 25885 28
20709 25886 25887 28
20710 25886 25888 28
20711 25886 25889 28
20712 25886 25890 28
20713 25891 25892 28
20714 25891 25893 28
20715 25891 25894 28
20716 25891 25895 28
20717 25896 25897 28
20718 25896 25898 28
20719 25896 25899 28
20720 25896 25900 28
20721 25901 25902 28
20722 25901 25903 28
20723 25901 25904 28
20724 25901 25905 28
20725 25906 25907 28
20726 25906 25908 28
20727 25906 25909 28
20728 25906 25910 28
20729 25911 25912 28
20730 25911 25913 28
20731 25911 25914 28
20732 25911 25915 28
20733 25916 25917 28
20734 25916 25918 28
20735 25916 25919 28
20736 25916 25920 28
20737 25921 25922 28
20738 25921 25923 28
20739 25921 25924 28
20740 25921 25925 28
20741 25926 25927 28
20742 25926 25928 28
20743 25926 25929 28
20744 25926 25930 28
20745 25931 25932 28
20746 25931 25933 28
20747 25931 25934 28
20748 25931 25935 28
20749 25936 25937 28
20750 25936 25938 28
20751 25936 25939 28
20752 25936 25940 28
20753 25941 25942 28
20754 25941 25943 28
20755 25941 25944 28
20756 25941 25945 28
20757 25946 25947 28
20758 25946 25948 28
20759 25946 25949 28
20760 25946 25950 28
20761 25951 25952 28
20762 25951 25953 28
20763 25951 25954 28
20764 25951 25955 28
20765 25956 25957 28
20766 25956 25958 28
20767 25956 25959 28
20768 25956 25960 28
20769 25961 25962 28
20770 25961 25963 28
20771 25961 25964 28
20772 25961 25965 28
20773 25966 25967 28
20774 25966 25968 28
20775 25966 25969 28
20776 25966 25970 28
20777 25971 25972 28
20778 25971 25973 28
20779 25971 25974 28
20780 25971 25975 28
20781 25976 25977 28
20782 25976 25978 28
20783 25976 25979 28
20784 25976 25980 28
20785 25981 25982 28
20786 25981 25983 28
20787 25981 25984 28
20788 25981 25985 28
20789 25986 25987 28
20790 25986 25988 28
20791 25986 25989 28
20792 25986 25990 28
20793 25991 25992 28
20794 25991 25993 28
20795 25991 25994 28
20796 25991 25995 28
20797 25996 25997 28
20798 25996 25998 28
20799 25996 25999 28
20800 25996 26000 28
20801 26001 26002 28
20802 26001 26003 28
20803 26001 26004 28
20804 26001 26005 28
20805 26006 26007 28
20806 26006 26008 28
20807 26006 26009 28
20808 26006 26010 28
20809 26011 26012 28
20810 26011 26013 28
20811 26011 26014 28
20812 26011 26015 28
20813 26016 26017 28
20814 26016 26018 28
20815 26016 26019 28
20816 26016 26020 28
20817 26021 26022 28
20818 26021 26023 28
20819 26021 26024 28
20820 26021 26025 28
20821 26026 26027 28
20822 26026 26028 28
20823 26026 26029 28
20824 26026 26030 28
20825 26031 26032 28
20826 26031 26033 28
20827 26031 26034 28
20828 26031 26035 28
20829 26036 26037 28
20830 26036 26038 28
20831 26036 26039 28
20832 26036 26040 28
20833 26041 26042 28
20834 26041 26043 28
20835 26041 26044 28
20836 26041 26045 28
20837 26046 26047 28
20838 26046 26048 28
20839 26046 26049 28
20840 26046 26050 28
20841 26051 26052 28
20842 26051 26053 28
20843 26051 26054 28
20844 26051 26055 28
20845 26056 26057 28
20846 26056 26058 28
20847 26056 26059 28
20848 26056 26060 28
20849 26061 26062 28
20850 26061 26063 28
20851 26061 26064 28
20852 26061 26065 28
20853 26066 26067 28
20854 26066 26068 28
20855 26066 26069 28
20856 26066 26070 28
20857 26071 26072 28
20858 26071 26073 28
20859 26071 26074 28
20860 26071 26075 28
20861 26076 26077 28
20862 26076 26078 28
20863 26076 26079 28
20864 26076 26080 28
20865 26081 26082 28
20866 26081 26083 28
20867 26081 26084 28
20868 26081 26085 28
20869 26086 26087 28
20870 26086 26088 28
20871 26086 26089 28
20872 26086 26090 28
20873 26091 26092 28
20874 26091 26093 28
20875 26091 26094 28
20876 26091 26095 28
20877 26096 26097 28
20878 26096 26098 28
20879 26096 26099 28
20880 26096 26100 28
20881 26101 26102 28
20882 26101 26103 28
20883 26101 26104 28
20884 26101 26105 28
20885 26106 26107 28
20886 26106 26108 28
20887 26106 26109 28
20888 26106 26110 28
20889 26111 26112 28
20890 26111 26113 28
20891 26111 26114 28
20892 26111 26115 28
20893 26116 26117 28
20894 26116 26118 28
20895 26116 26119 28
20896 26116 26120 28
20897 26121 26122 28
20898 26121 26123 28
20899 26121 26124 28
20900 26121 26125 28
20901 26126 26127 28
20902 26126 26128 28
20903 26126 26129 28
20904 26126 26130 28
20905 26131 26132 28
20906 26131 26133 28
20907 26131 26134 28
20908 26131 26135 28
20909 26136 26137 28
20910 26136 26138 28
20911 26136 26139 28
20912 26136 26140 28
20913 26141 26142 28
20914 26141 26143 28
20915 26141 26144 28
20916 26141 26145 28
20917 26146 26147 28
20918 26146 26148 28
20919 26146 26149 28
20920 26146 26150 28
20921 26151 26152 28
20922 26151 26153 28
20923 26151 26154 28
20924 26151 26155 28
20925 26156 26157 28
20926 26156 26158 28
20927 26156 26159 28
20928 26156 26160 28
20929 26161 26162 28
20930 26161 26163 28
20931 26161 26164 28
20932 26161 26165 28
20933 26166 26167 28
20934 26166 26168 28
20935 26166 26169 28
20936 26166 26170 28
20937 26171 26172 28
20938 26171 26173 28
20939 26171 26174 28
20940 26171 26175 28
20941 26176 26177 28
20942 26176 26178 28
20943 26176 26179 28
20944 26176 26180 28
20945 26181 26182 28
20946 26181 26183 28
20947 26181 26184 28
20948 26181 26185 28
20949 26186 26187 28
20950 26186 26188 28
20951 26186 26189 28
20952 26186 26190 28
20953 26191 26192 28
20954 26191 26193 28
20955 26191 26194 28
20956 26191 26195 28
20957 26196 26197 28
20958 26196 26198 28
20959 26196 26199 28
20960 26196 26200 28
20961 26201 26202 28
20962 26201 26203 28
20963 26201 26204 28
20964 26201 26205 28
20965 26206 26207 28
20966 26206 26208 28
20967 26206 26209 28
20968 26206 26210 28
20969 26211 26212 28
20970 26211 26213 28
20971 26211 26214 28
20972 26211 26215 28
20973 26216 26217 28
20974 26216 26218 28
20975 26216 26219 28
20976 26216 26220 28
20977 26221 26222 28
20978 26221 26223 28
20979 26221 26224 28
20980 26221 26225 28
20981 26226 26227 28
20982 26226 26228 28
20983 26226 26229 28
20984 26226 26230 28
20985 26231 26232 28
20986 26231 26233 28
20987 26231 26234 28
20988 26231 26235 28
20989 26236 26237 28
20990 26236 26238 28
20991 26236 26239 28
20992 26236 26240 28
20993 26241 26242 28
20994 26241 26243 28
20995 26241 26244 28
20996 26241 26245 28
20997 26246 26247 28
20998 26246 26248 28
20999 26246 26249 28
21000 26246 26250 28
21001 26251 26252 28
21002 26251 26253 28
21003 26251 26254 28
21004 26251 26255 28
21005 26256 26257 28
21006 26256 26258 28
21007 26256 26259 28
21008 26256 26260 28
21009 26261 26262 28
21010 26261 26263 28
21011 26261 26264 28
21012 26261 26265 28
21013 26266 26267 28
21014 26266 26268 28
21015 26266 26269 28
21016 26266 26270 28
21017 26271 26272 28
21018 26271 26273 28
21019 26271 26274 28
21020 26271 26275 28
21021 26276 26277 28
21022 26276 26278 28
21023 26276 26279 28
21024 26276 26280 28
21025 26281 26282 28
21026 26281 26283 28
21027 26281 26284 28
21028 26281 26285 28
21029 26286 26287 28
21030 26286 26288 28
21031 26286 26289 28
21032 26286 26290 28
21033 26291 26292 28
21034 26291 26293 28
21035 26291 26294 28
21036 26291 26295 28
21037 26296 26297 28
21038 26296 26298 28
21039 26296 26299 28
21040 26296 26300 28
21041 26301 26302 28
21042 26301 26303 28
21043 26301 26304 28
21044 26301 26305 28
21045 26306 26307 28
21046 26306 26308 28
21047 26306 26309 28
21048 26306 26310 28
21049 26311 26312 28
21050 26311 26313 28
21051 26311 26314 28
21052 26311 26315 28
21053 26316 26317 28
21054 26316 26318 28
21055 26316 26319 28
21056 26316 26320 28
21057 26321 26322 28
21058 26321 26323 28
21059 26321 26324 28
21060 26321 26325 28
21061 26326 26327 28
21062 26326 26328 28
21063 26326 26329 28
21064 26326 26330 28
21065 26331 26332 28
21066 26331 26333 28
21067 26331 26334 28
21068 26331 26335 28
21069 26336 26337 28
21070 26336 26338 28
21071 26336 26339 28
21072 26336 26340 28
21073 26341 26342 28
21074 26341 26343 28
21075 26341 26344 28
21076 26341 26345 28
21077 26346 26347 28
21078 26346 26348 28
21079 26346 26349 28
21080 26346 26350 28
21081 26351 26352 28
21082 26351 26353 28
21083 26351 26354 28
21084 26351 26355 28
21085 26356 26357 28
21086 26356 26358 28
21087 26356 26359 28
21088 26356 26360 28
21089 26361 26362 28
21090 26361 26363 28
21091 26361 26364 28
21092 26361 26365 28
21093 26366 26367 28
21094 26366 26368 28
21095 26366 26369 28
21096 26366 26370 28
21097 26371 26372 28
21098 26371 26373 28
21099 26371 26374 28
21100 26371 26375 28
21101 26376 26377 28
21102 26376 26378 28
21103 26376 26379 28
21104 26376 26380 28
21105 26381 26382 28
21106 26381 26383 28
21107 26381 26384 28
21108 26381 26385 28
21109 26386 26387 28
21110 26386 26388 28
21111 26386 26389 28
21112 26386 26390 28
21113 26391 26392 28
21114 26391 26393 28
21115 26391 26394 28
21116 26391 26395 28
21117 26396 26397 28
21118 26396 26398 28
21119 26396 26399 28
21120 26396 26400 28
21121 26401 26402 28
21122 26401 26403 28
21123 26401 26404 28
21124 26401 26405 28
21125 26406 26407 28
21126 26406 26408 28
21127 26406 26409 28
21128 26406 26410 28
21129 26411 26412 28
21130 26411 26413 28
21131 26411 26414 28
21132 26411 26415 28
21133 26416 26417 28
21134 26416 26418 28
21135 26416 26419 28
21136 26416 26420 28
21137 26421 26422 28
21138 26421 26423 28
21139 26421 26424 28
21140 26421 26425 28
21141 26426 26427 28
21142 26426 26428 28
21143 26426 26429 28
21144 26426 26430 28
21145 26431 26432 28
21146 26431 26433 28
21147 26431 26434 28
21148 26431 26435 28
21149 26436 26437 28
21150 26436 26438 28
21151 26436 26439 28
21152 26436 26440 28
21153 26441 26442 28
21154 26441 26443 28
21155 26441 26444 28
21156 26441 26445 28
21157 26446 26447 28
21158 26446 26448 28
21159 26446 26449 28
21160 26446 26450 28
21161 26451 26452 28
21162 26451 26453 28
21163 26451 26454 28
21164 26451 26455 28
21165 26456 26457 28
21166 26456 26458 28
21167 26456 26459 28
21168 26456 26460 28
21169 26461 26462 28
21170 26461 26463 28
21171 26461 26464 28
21172 26461 26465 28
21173 26466 26467 28
21174 26466 26468 28
21175 26466 26469 28
21176 26466 26470 28
21177 26471 26472 28
21178 26471 26473 28
21179 26471 26474 28
21180 26471 26475 28
21181 26476 26477 28
21182 26476 26478 28
21183 26476 26479 28
21184 26476 26480 28
21185 26481 26482 28
21186 26481 26483 28
21187 26481 26484 28
21188 26481 26485 28
21189 26486 26487 28
21190 26486 26488 28
21191 26486 26489 28
21192 26486 26490 28
21193 26491 26492 28
21194 26491 26493 28
21195 26491 26494 28
21196 26491 26495 28
21197 26496 26497 28
21198 26496 26498 28
21199 26496 26499 28
21200 26496 26500 28
21201 26501 26502 28
21202 26501 26503 28
21203 26501 26504 28
21204 26501 26505 28
21205 26506 26507 28
21206 26506 26508 28
21207 26506 26509 28
21208 26506 26510 28
21209 26511 26512 28
21210 26511 26513 28
21211 26511 26514 28
21212 26511 26515 28
21213 26516 26517 28
21214 26516 26518 28
21215 26516 26519 28
21216 26516 26520 28
21217 26521 26522 28
21218 26521 26523 28
21219 26521 26524 28
21220 26521 26525 28
21221 26526 26527 28
21222 26526 26528 28
21223 26526 26529 28
21224 26526 26530 28
21225 26531 26532 28
21226 26531 26533 28
21227 26531 26534 28
21228 26531 26535 28
21229 26536 26537 28
21230 26536 26538 28
21231 26536 26539 28
21232 26536 26540 28
21233 26541 26542 28
21234 26541 26543 28
21235 26541 26544 28
21236 26541 26545 28
21237 26546 26547 28
21238 26546 26548 28
21239 26546 26549 28
21240 26546 26550 28
21241 26551 26552 28
21242 26551 26553 28
21243 26551 26554 28
21244 26551 26555 28
21245 26556 26557 28
21246 26556 26558 28
21247 26556 26559 28
21248 26556 26560 28
21249 26561 26562 28
21250 26561 26563 28
21251 26561 26564 28
21252 26561 26565 28
21253 26566 26567 28
21254 26566 26568 28
21255 26566 26569 28
21256 26566 26570 28
21257 26571 26572 28
21258 26571 26573 28
21259 26571 26574 28
21260 26571 26575 28
21261 26576 26577 28
21262 26576 26578 28
21263 26576 26579 28
21264 26576 26580 28
21265 26581 26582 28
21266 26581 26583 28
21267 26581 26584 28
21268 26581 26585 28
21269 26586 26587 28
21270 26586 26588 28
21271 26586 26589 28
21272 26586 26590 28
21273 26591 26592 28
21274 26591 26593 28
21275 26591 26594 28
21276 26591 26595 28
21277 26596 26597 28
21278 26596 26598 28
21279 26596 26599 28
21280 26596 26600 28
21281 26601 26602 28
21282 26601 26603 28
21283 26601 26604 28
21284 26601 26605 28
21285 26606 26607 28
21286 26606 26608 28
21287 26606 26609 28
21288 26606 26610 28
21289 26611 26612 28
21290 26611 26613 28
21291 26611 26614 28
21292 26611 26615 28
21293 26616 26617 28
21294 26616 26618 28
21295 26616 26619 28
21296 26616 26620 28
21297 26621 26622 28
21298 26621 26623 28
21299 26621 26624 28
21300 26621 26625 28
21301 26626 26627 28
21302 26626 26628 28
21303 26626 26629 28
21304 26626 26630 28
21305 26631 26632 28
21306 26631 26633 28
21307 26631 26634 28
21308 26631 26635 28
21309 26636 26637 28
21310 26636 26638 28
21311 26636 26639 28
21312 26636 26640 28
21313 26641 26642 28
21314 26641 26643 28
21315 26641 26644 28
21316 26641 26645 28
21317 26646 26647 28
21318 26646 26648 28
21319 26646 26649 28
21320 26646 26650 28
21321 26651 26652 28
21322 26651 26653 28
21323 26651 26654 28
21324 26651 26655 28
21325 26656 26657 28
21326 26656 26658 28
21327 26656 26659 28
21328 26656 26660 28
21329 26661 26662 28
21330 26661 26663 28
21331 26661 26664 28
21332 26661 26665 28
21333 26666 26667 28
21334 26666 26668 28
21335 26666 26669 28
21336 26666 26670 28
21337 26671 26672 28
21338 26671 26673 28
21339 26671 26674 28
21340 26671 26675 28
21341 26676 26677 28
21342 26676 26678 28
21343 26676 26679 28
21344 26676 26680 28
21345 26681 26682 28
21346 26681 26683 28
21347 26681 26684 28
21348 26681 26685 28
21349 26686 26687 28
21350 26686 26688 28
21351 26686 26689 28
21352 26686 26690 28
21353 26691 26692 28
21354 26691 26693 28
21355 26691 26694 28
21356 26691 26695 28
21357 26696 26697 28
21358 26696 26698 28
21359 26696 26699 28
21360 26696 26700 28
21361 26701 26702 28
21362 26701 26703 28
21363 26701 26704 28
21364 26701 26705 28
21365 26706 26707 28
21366 26706 26708 28
21367 26706 26709 28
21368 26706 26710 28
21369 26711 26712 28
21370 26711 26713 28
21371 26711 26714 28
21372 26711 26715 28
21373 26716 26717 28
21374 26716 26718 28
21375 26716 26719 28
21376 26716 26720 28
21377 26721 26722 28
21378 26721 26723 28
21379 26721 26724 28
21380 26721 26725 28
21381 26726 26727 28
21382 26726 26728 28
21383 26726 26729 28
21384 26726 26730 28
21385 26731 26732 28
21386 26731 26733 28
21387 26731 26734 28
21388 26731 26735 28
21389 26736 26737 28
21390 26736 26738 28
21391 26736 26739 28
21392 26736 26740 28
21393 26741 26742 28
21394 26741 26743 28
21395 26741 26744 28
21396 26741 26745 28
21397 26746 26747 28
21398 26746 26748 28
21399 26746 26749 28
21400 26746 26750 28
21401 26751 26752 28
21402 26751 26753 28
21403 26751 26754 28
21404 26751 26755 28
21405 26756 26757 28
21406 26756 26758 28
21407 26756 26759 28
21408 26756 26760 28
21409 26761 26762 28
21410 26761 26763 28
21411 26761 26764 28
21412 26761 26765 28
21413 26766 26767 28
21414 26766 26768 28
21415 26766 26769 28
21416 26766 26770 28
21417 26771 26772 28
21418 26771 26773 28
21419 26771 26774 28
21420 26771 26775 28
21421 26776 26777 28
21422 26776 26778 28
21423 26776 26779 28
21424 26776 26780 28
21425 26781 26782 28
21426 26781 26783 28
21427 26781 26784 28
21428 26781 26785 28
21429 26786 26787 28
21430 26786 26788 28
21431 26786 26789 28
21432 26786 26790 28
21433 26791 26792 28
21434 26791 26793 28
21435 26791 26794 28
21436 26791 26795 28
21437 26796 26797 28
21438 26796 26798 28
21439 26796 26799 28
21440 26796 26800 28
21441 26801 26802 28
21442 26801 26803 28
21443 26801 26804 28
21444 26801 26805 28
21445 26806 26807 28
21446 26806 26808 28
21447 26806 26809 28
21448 26806 26810 28
21449 26811 26812 28
21450 26811 26813 28
21451 26811 26814 28
21452 26811 26815 28
21453 26816 26817 28
21454 26816 26818 28
21455 26816 26819 28
21456 26816 26820 28
21457 26821 26822 28
21458 26821 26823 28
21459 26821 26824 28
21460 26821 26825 28
21461 26826 26827 28
21462 26826 26828 28
21463 26826 26829 28
21464 26826 26830 28
21465 26831 26832 28
21466 26831 26833 28
21467 26831 26834 28
21468 26831 26835 28
21469 26836 26837 28
21470 26836 26838 28
21471 26836 26839 28
21472 26836 26840 28
21473 26841 26842 28
21474 26841 26843 28
21475 26841 26844 28
21476 26841 26845 28
21477 26846 26847 28
21478 26846 26848 28
21479 26846 26849 28
21480 26846 26850 28
21481 26851 26852 28
21482 26851 26853 28
21483 26851 26854 28
21484 26851 26855 28
21485 26856 26857 28
21486 26856 26858 28
21487 26856 26859 28
21488 26856 26860 28
21489 26861 26862 28
21490 26861 26863 28
21491 26861 26864 28
21492 26861 26865 28
21493 26866 26867 28
21494 26866 26868 28
21495 26866 26869 28
21496 26866 26870 28
21497 26871 26872 28
21498 26871 26873 28
21499 26871 26874 28
21500 26871 26875 28
21501 26876 26877 28
21502 26876 26878 28
21503 26876 26879 28
21504 26876 26880 28
21505 26881 26882 28
21506 26881 26883 28
21507 26881 26884 28
21508 26881 26885 28
21509 26886 26887 28
21510 26886 26888 28
21511 26886 26889 28
21512 26886 26890 28
21513 26891 26892 28
21514 26891 26893 28
21515 26891 26894 28
21516 26891 26895 28
21517 26896 26897 28
21518 26896 26898 28
21519 26896 26899 28
21520 26896 26900 28
21521 26901 26902 28
21522 26901 26903 28
21523 26901 26904 28
21524 26901 26905 28
21525 26906 26907 28
21526 26906 26908 28
21527 26906 26909 28
21528 26906 26910 28
21529 26911 26912 28
21530 26911 26913 28
21531 26911 26914 28
21532 26911 26915 28
21533 26916 26917 28
21534 26916 26918 28
21535 26916 26919 28
21536 26916 26920 28
21537 26921 26922 28
21538 26921 26923 28
21539 26921 26924 28
21540 26921 26925 28
21541 26926 26927 28
21542 26926 26928 28
21543 26926 26929 28
21544 26926 26930 28
21545 26931 26932 28
21546 26931 26933 28
21547 26931 26934 28
21548 26931 26935 28
21549 26936 26937 28
21550 26936 26938 28
21551 26936 26939 28
21552 26936 26940 28
21553 26941 26942 28
21554 26941 26943 28
21555 26941 26944 28
21556 26941 26945 28
21557 26946 26947 28
21558 26946 26948 28
21559 26946 26949 28
21560 26946 26950 28
21561 26951 26952 28
21562 26951 26953 28
21563 26951 26954 28
21564 26951 26955 28
21565 26956 26957 28
21566 26956 26958 28
21567 26956 26959 28
21568 26956 26960 28
21569 26961 26962 28
21570 26961 26963 28
21571 26961 26964 28
21572 26961 26965 28
21573 26966 26967 28
21574 26966 26968 28
21575 26966 26969 28
21576 26966 26970 28
21577 26971 26972 28
21578 26971 26973 28
21579 26971 26974 28
21580 26971 26975 28
21581 26976 26977 28
21582 26976 26978 28
21583 26976 26979 28
21584 26976 26980 28
21585 26981 26982 28
21586 26981 26983 28
21587 26981 26984 28
21588 26981 26985 28
21589 26986 26987 28
21590 26986 26988 28
21591 26986 26989 28
21592 26986 26990 28
21593 26991 26992 28
21594 26991 26993 28
21595 26991 26994 28
21596 26991 26995 28
21597 26996 26997 28
21598 26996 26998 28
21599 26996 26999 28
21600 26996 27000 28
21601 27001 27002 28
21602 27001 27003 28
21603 27001 27004 28
21604 27001 27005 28
21605 27006 27007 28
21606 27006 27008 28
21607 27006 27009 28
21608 27006 27010 28
21609 27011 27012 28
21610 27011 27013 28
21611 27011 27014 28
21612 27011 27015 28
21613 27016 27017 28
21614 27016 27018 28
21615 27016 27019 28
21616 27016 27020 28
21617 27021 27022 28
21618 27021 27023 28
21619 27021 27024 28
21620 27021 27025 28
21621 27026 27027 28
21622 27026 27028 28
21623 27026 27029 28
21624 27026 27030 28
21625 27031 27032 28
21626 27031 27033 28
21627 27031 27034 28
21628 27031 27035 28
21629 27036 27037 28
21630 27036 27038 28
21631 27036 27039 28
21632 27036 27040 28
21633 27041 27042 28
21634 27041 27043 28
21635 27041 27044 28
21636 27041 27045 28
21637 27046 27047 28
21638 27046 27048 28
21639 27046 27049 28
21640 27046 27050 28
21641 27051 27052 28
21642 27051 27053 28
21643 27051 27054 28
21644 27051 27055 28
21645 27056 27057 28
21646 27056 27058 28
21647 27056 27059 28
21648 27056 27060 28
21649 27061 27062 28
21650 27061 27063 28
21651 27061 27064 28
21652 27061 27065 28
21653 27066 27067 28
21654 27066 27068 28
21655 27066 27069 28
21656 27066 27070 28
21657 27071 27072 28
21658 27071 27073 28
21659 27071 27074 28
21660 27071 27075 28
21661 27076 27077 28
21662 27076 27078 28
21663 27076 27079 28
21664 27076 27080 28
21665 27081 27082 28
21666 27081 27083 28
21667 27081 27084 28
21668 27081 27085 28
21669 27086 27087 28
21670 27086 27088 28
21671 27086 27089 28
21672 27086 27090 28
21673 27091 27092 28
21674 27091 27093 28
21675 27091 27094 28
21676 27091 27095 28
21677 27096 27097 28
21678 27096 27098 28
21679 27096 27099 28
21680 27096 27100 28
21681 27101 27102 28
21682 27101 27103 28
21683 27101 27104 28
21684 27101 27105 28
21685 27106 27107 28
21686 27106 27108 28
21687 27106 27109 28
21688 27106 27110 28
21689 27111 27112 28
21690 27111 27113 28
21691 27111 27114 28
21692 27111 27115 28
21693 27116 27117 28
21694 27116 27118 28
21695 27116 27119 28
21696 27116 27120 28
21697 27121 27122 28
21698 27121 27123 28
21699 27121 27124 28
21700 27121 27125 28
21701 27126 27127 28
21702 27126 27128 28
21703 27126 27129 28
21704 27126 27130 28
21705 27131 27132 28
21706 27131 27133 28
21707 27131 27134 28
21708 27131 27135 28
21709 27136 27137 28
21710 27136 27138 28
21711 27136 27139 28
21712 27136 27140 28
21713 27141 27142 28
21714 27141 27143 28
21715 27141 27144 28
21716 27141 27145 28
21717 27146 27147 28
21718 27146 27148 28
21719 27146 27149 28
21720 27146 27150 28
21721 27151 27152 28
21722 27151 27153 28
21723 27151 27154 28
21724 27151 27155 28
21725 27156 27157 28
21726 27156 27158 28
21727 27156 27159 28
21728 27156 27160 28
21729 27161 27162 28
21730 27161 27163 28
21731 27161 27164 28
21732 27161 27165 28
21733 27166 27167 28
21734 27166 27168 28
21735 27166 27169 28
21736 27166 27170 28
21737 27171 27172 28
21738 27171 27173 28
21739 27171 27174 28
21740 27171 27175 28
21741 27176 27177 28
21742 27176 27178 28
21743 27176 27179 28
21744 27176 27180 28
21745 27181 27182 28
21746 27181 27183 28
21747 27181 27184 28
21748 27181 27185 28
21749 27186 27187 28
21750 27186 27188 28
21751 27186 27189 28
21752 27186 27190 28
21753 27191 27192 28
21754 27191 27193 28
21755 27191 27194 28
21756 27191 27195 28
21757 27196 27197 28
21758 27196 27198 28
21759 27196 27199 28
21760 27196 27200 28
21761 27201 27202 28
21762 27201 27203 28
21763 27201 27204 28
21764 27201 27205 28
21765 27206 27207 28
21766 27206 27208 28
21767 27206 27209 28
21768 27206 27210 28
21769 27211 27212 28
21770 27211 27213 28
21771 27211 27214 28
21772 27211 27215 28
21773 27216 27217 28
21774 27216 27218 28
21775 27216 27219 28
21776 27216 27220 28
21777 27221 27222 28
21778 27221 27223 28
21779 27221 27224 28
21780 27221 27225 28
21781 27226 27227 28
21782 27226 27228 28
21783 27226 27229 28
21784 27226 27230 28
21785 27231 27232 28
21786 27231 27233 28
21787 27231 27234 28
21788 27231 27235 28
21789 27236 27237 28
21790 27236 27238 28
21791 27236 27239 28
21792 27236 27240 28
21793 27241 27242 28
21794 27241 27243 28
21795 27241 27244 28
21796 27241 27245 28
21797 27246 27247 28
21798 27246 27248 28
21799 27246 27249 28
21800 27246 27250 28
21801 27251 27252 28
21802 27251 27253 28
21803 27251 27254 28
21804 27251 27255 28
21805 27256 27257 28
21806 27256 27258 28
21807 27256 27259 28
21808 27256 27260 28
21809 27261 27262 28
21810 27261 27263 28
21811 27261 27264 28
21812 27261 27265 28
21813 27266 27267 28
21814 27266 27268 28
21815 27266 27269 28
21816 27266 27270 28
21817 27271 27272 28
21818 27271 27273 28
21819 27271 27274 28
21820 27271 27275 28
21821 27276 27277 28
21822 27276 27278 28
21823 27276 27279 28
21824 27276 27280 28
21825 27281 27282 28
21826 27281 27283 28
21827 27281 27284 28
21828 27281 27285 28
21829 27286 27287 28
21830 27286 27288 28
21831 27286 27289 28
21832 27286 27290 28
21833 27291 27292 28
21834 27291 27293 28
21835 27291 27294 28
21836 27291 27295 28
21837 27296 27297 28
21838 27296 27298 28
21839 27296 27299 28
21840 27296 27300 28
21841 27301 27302 28
21842 27301 27303 28
21843 27301 27304 28
21844 27301 27305 28
21845 27306 27307 28
21846 27306 27308 28
21847 27306 27309 28
21848 27306 27310 28
21849 27311 27312 28
21850 27311 27313 28
21851 27311 27314 28
21852 27311 27315 28
21853 27316 27317 28
21854 27316 27318 28
21855 27316 27319 28
21856 27316 27320 28
21857 27321 27322 28
21858 27321 27323 28
21859 27321 27324 28
21860 27321 27325 28
21861 27326 27327 28
21862 27326 27328 28
21863 27326 27329 28
21864 27326 27330 28
21865 27331 27332 28
21866 27331 27333 28
21867 27331 27334 28
21868 27331 27335 28
21869 27336 27337 28
21870 27336 27338 28
21871 27336 27339 28
21872 27336 27340 28
21873 27341 27342 28
21874 27341 27343 28
21875 27341 27344 28
21876 27341 27345 28
21877 27346 27347 28
21878 27346 27348 28
21879 27346 27349 28
21880 27346 27350 28
21881 27351 27352 28
21882 27351 27353 28
21883 27351 27354 28
21884 27351 27355 28
21885 27356 27357 28
21886 27356 27358 28
21887 27356 27359 28
21888 27356 27360 28
21889 27361 27362 28
21890 27361 27363 28
21891 27361 27364 28
21892 27361 27365 28
21893 27366 27367 28
21894 27366 27368 28
21895 27366 27369 28
21896 27366 27370 28
21897 27371 27372 28
21898 27371 27373 28
21899 27371 27374 28
21900 27371 27375 28
21901 27376 27377 28
21902 27376 27378 28
21903 27376 27379 28
21904 27376 27380 28
21905 27381 27382 28
21906 27381 27383 28
21907 27381 27384 28
21908 27381 27385 28
21909 27386 27387 28
21910 27386 27388 28
21911 27386 27389 28
21912 27386 27390 28
21913 27391 27392 28
21914 27391 27393 28
21915 27391 27394 28
21916 27391 27395 28
21917 27396 27397 28
21918 27396 27398 28
21919 27396 27399 28
21920 27396 27400 28
21921 27401 27402 28
21922 27401 27403 28
21923 27401 27404 28
21924 27401 27405 28
21925 27406 27407 28
21926 27406 27408 28
21927 27406 27409 28
21928 27406 27410 28
21929 27411 27412 28
21930 27411 27413 28
21931 27411 27414 28
21932 27411 27415 28
21933 27416 27417 28
21934 27416 27418 28
21935 27416 27419 28
21936 27416 27420 28
21937 27421 27422 28
21938 27421 27423 28
21939 27421 27424 28
21940 27421 27425 28
21941 27426 27427 28
21942 27426 27428 28
21943 27426 27429 28
21944 27426 27430 28
21945 27431 27432 28
21946 27431 27433 28
21947 27431 27434 28
21948 27431 27435 28
21949 27436 27437 28
21950 27436 27438 28
21951 27436 27439 28
21952 27436 27440 28
21953 27441 27442 28
21954 27441 27443 28
21955 27441 27444 28
21956 27441 27445 28
21957 27446 27447 28
21958 27446 27448 28
21959 27446 27449 28
21960 27446 27450 28
21961 27451 27452 28
21962 27451 27453 28
21963 27451 27454 28
21964 27451 27455 28
21965 27456 27457 28
21966 27456 27458 28
21967 27456 27459 28
21968 27456 27460 28
21969 27461 27462 28
21970 27461 27463 28
21971 27461 27464 28
21972 27461 27465 28
21973 27466 27467 28
21974 27466 27468 28
21975 27466 27469 28
21976 27466 27470 28
21977 27471 27472 28
21978 27471 27473 28
21979 27471 27474 28
21980 27471 27475 28
21981 27476 27477 28
21982 27476 27478 28
21983 27476 27479 28
21984 27476 27480 28
21985 27481 27482 28
21986 27481 27483 28
21987 27481 27484 28
21988 27481 27485 28
21989 27486 27487 28
21990 27486 27488 28
21991 27486 27489 28
21992 27486 27490 28
21993 27491 27492 28
21994 27491 27493 28
21995 27491 27494 28
21996 27491 27495 28
21997 27496 27497 28
21998 27496 27498 28
21999 27496 27499 28
22000 27496 27500 28
22001 27501 27502 28
22002 27501 27503 28
22003 27501 27504 28
22004 27501 27505 28
22005 27506 27507 28
22006 27506 27508 28
22007 27506 27509 28
22008 27506 27510 28
22009 27511 27512 28
22010 27511 27513 28
22011 27511 27514 28
22012 27511 27515 28
22013 27516 27517 28
22014 27516 27518 28
22015 27516 27519 28
22016 27516 27520 28
22017 27521 27522 28
22018 27521 27523 28
22019 27521 27524 28
22020 27521 27525 28
22021 27526 27527 28
22022 27526 27528 28
22023 27526 27529 28
22024 27526 27530 28
22025 27531 27532 28
22026 27531 27533 28
22027 27531 27534 28
22028 27531 27535 28
22029 27536 27537 28
22030 27536 27538 28
22031 27536 27539 28
22032 27536 27540 28
22033 27541 27542 28
22034 27541 27543 28
22035 27541 27544 28
22036 27541 27545 28
22037 27546 27547 28
22038 27546 27548 28
22039 27546 27549 28
22040 27546 27550 28
22041 27551 27552 28
22042 27551 27553 28
22043 27551 27554 28
22044 27551 27555 28
22045 27556 27557 28
22046 27556 27558 28
22047 27556 27559 28
22048 27556 27560 28
22049 27561 27562 28
22050 27561 27563 28
22051 27561 27564 28
22052 27561 27565 28
22053 27566 27567 28
22054 27566 27568 28
22055 27566 27569 28
22056 27566 27570 28
22057 27571 27572 28
22058 27571 27573 28
22059 27571 27574 28
22060 27571 27575 28
22061 27576 27577 28
22062 27576 27578 28
22063 27576 27579 28
22064 27576 27580 28
22065 27581 27582 28
22066 27581 27583 28
22067 27581 27584 28
22068 27581 27585 28
22069 27586 27587 28
22070 27586 27588 28
22071 27586 27589 28
22072 27586 27590 28
22073 27591 27592 28
22074 27591 27593 28
22075 27591 27594 28
22076 27591 27595 28
22077 27596 27597 28
22078 27596 27598 28
22079 27596 27599 28
22080 27596 27600 28
22081 27601 27602 28
22082 27601 27603 28
22083 27601 27604 28
22084 27601 27605 28
22085 27606 27607 28
22086 27606 27608 28
22087 27606 27609 28
22088 27606 27610 28
22089 27611 27612 28
22090 27611 27613 28
22091 27611 27614 28
22092 27611 27615 28
22093 27616 27617 28
22094 27616 27618 28
22095 27616 27619 28
22096 27616 27620 28
22097 27621 27622 28
22098 27621 27623 28
22099 27621 27624 28
22100 27621 27625 28
22101 27626 27627 28
22102 27626 27628 28
22103 27626 27629 28
22104 27626 27630 28
22105 27631 27632 28
22106 27631 27633 28
22107 27631 27634 28
22108 27631 27635 28
22109 27636 27637 28
22110 27636 27638 28
22111 27636 27639 28
22112 27636 27640 28
22113 27641 27642 28
22114 27641 27643 28
22115 27641 27644 28
22116 27641 27645 28
22117 27646 27647 28
22118 27646 27648 28
22119 27646 27649 28
22120 27646 27650 28
22121 27651 27652 28
22122 27651 27653 28
22123 27651 27654 28
22124 27651 27655 28
22125 27656 27657 28
22126 27656 27658 28
22127 27656 27659 28
22128 27656 27660 28
22129 27661 27662 28
22130 27661 27663 28
22131 27661 27664 28
22132 27661 27665 28
22133 27666 27667 28
22134 27666 27668 28
22135 27666 27669 28
22136 27666 27670 28
22137 27671 27672 28
22138 27671 27673 28
22139 27671 27674 28
22140 27671 27675 28
22141 27676 27677 28
22142 27676 27678 28
22143 27676 27679 28
22144 27676 27680 28
22145 27681 27682 28
22146 27681 27683 28
22147 27681 27684 28
22148 27681 27685 28
22149 27686 27687 28
22150 27686 27688 28
22151 27686 27689 28
22152 27686 27690 28
22153 27691 27692 28
22154 27691 27693 28
22155 27691 27694 28
22156 27691 27695 28
22157 27696 27697 28
22158 27696 27698 28
22159 27696 27699 28
22160 27696 27700 28
22161 27701 27702 28
22162 27701 27703 28
22163 27701 27704 28
22164 27701 27705 28
22165 27706 27707 28
22166 27706 27708 28
22167 27706 27709 28
22168 27706 27710 28
22169 27711 27712 28
22170 27711 27713 28
22171 27711 27714 28
22172 27711 27715 28
22173 27716 27717 28
22174 27716 27718 28
22175 27716 27719 28
22176 27716 27720 28
22177 27721 27722 28
22178 27721 27723 28
22179 27721 27724 28
22180 27721 27725 28
22181 27726 27727 28
22182 27726 27728 28
22183 27726 27729 28
22184 27726 27730 28
22185 27731 27732 28
22186 27731 27733 28
22187 27731 27734 28
22188 27731 27735 28
22189 27736 27737 28
22190 27736 27738 28
22191 27736 27739 28
22192 27736 27740 28
22193 27741 27742 28
22194 27741 27743 28
22195 27741 27744 28
22196 27741 27745 28
22197 27746 27747 28
22198 27746 27748 28
22199 27746 27749 28
22200 27746 27750 28
22201 27751 27752 28
22202 27751 27753 28
22203 27751 27754 28
22204 27751 27755 28
22205 27756 27757 28
22206 27756 27758 28
22207 27756 27759 28
22208 27756 27760 28
22209 27761 27762 28
22210 27761 27763 28
22211 27761 27764 28
22212 27761 27765 28
22213 27766 27767 28
22214 27766 27768 28
22215 27766 27769 28
22216 27766 27770 28
22217 27771 27772 28
22218 27771 27773 28
22219 27771 27774 28
22220 27771 27775 28
22221 27776 27777 28
22222 27776 27778 28
22223 27776 27779 28
22224 27776 27780 28
22225 27781 27782 28
22226 27781 27783 28
22227 27781 27784 28
22228 27781 27785 28
22229 27786 27787 28
22230 27786 27788 28
22231 27786 27789 28
22232 27786 27790 28
22233 27791 27792 28
22234 27791 27793 28
22235 27791 27794 28
22236 27791 27795 28
22237 27796 27797 28
22238 27796 27798 28
22239 27796 27799 28
22240 27796 27800 28
22241 27801 27802 28
22242 27801 27803 28
22243 27801 27804 28
22244 27801 27805 28
22245 27806 27807 28
22246 27806 27808 28
22247 27806 27809 28
22248 27806 27810 28
22249 27811 27812 28
22250 27811 27813 28
22251 27811 27814 28
22252 27811 27815 28
22253 27816 27817 28
22254 27816 27818 28
22255 27816 27819 28
22256 27816 27820 28
22257 27821 27822 28
22258 27821 27823 28
22259 27821 27824 28
22260 27821 27825 28
22261 27826 27827 28
22262 27826 27828 28
22263 27826 27829 28
22264 27826 27830 28
22265 27831 27832 28
22266 27831 27833 28
22267 27831 27834 28
22268 27831 27835 28
22269 27836 27837 28
22270 27836 27838 28
22271 27836 27839 28
22272 27836 27840 28
22273 27841 27842 28
22274 27841 27843 28
22275 27841 27844 28
22276 27841 27845 28
22277 27846 27847 28
22278 27846 27848 28
22279 27846 27849 28
22280 27846 27850 28
22281 27851 27852 28
22282 27851 27853 28
22283 27851 27854 28
22284 27851 27855 28
22285 27856 27857 28
22286 27856 27858 28
22287 27856 27859 28
22288 27856 27860 28
22289 27861 27862 28
22290 27861 27863 28
22291 27861 27864 28
22292 27861 27865 28
22293 27866 27867 28
22294 27866 27868 28
22295 27866 27869 28
22296 27866 27870 28
22297 27871 27872 28
22298 27871 27873 28
22299 27871 27874 28
22300 27871 27875 28
22301 27876 27877 28
22302 27876 27878 28
22303 27876 27879 28
22304 27876 27880 28
22305 27881 27882 28
22306 27881 27883 28
22307 27881 27884 28
22308 27881 27885 28
22309 27886 27887 28
22310 27886 27888 28
22311 27886 27889 28
22312 27886 27890 28
22313 27891 27892 28
22314 27891 27893 28
22315 27891 27894 28
22316 27891 27895 28
22317 27896 27897 28
22318 27896 27898 28
22319 27896 27899 28
22320 27896 27900 28
22321 27901 27902 28
22322 27901 27903 28
22323 27901 27904 28
22324 27901 27905 28
22325 27906 27907 28
22326 27906 27908 28
22327 27906 27909 28
22328 27906 27910 28
22329 27911 27912 28
22330 27911 27913 28
22331 27911 27914 28
22332 27911 27915 28
22333 27916 27917 28
22334 27916 27918 28
22335 27916 27919 28
22336 27916 27920 28
22337 27921 27922 28
22338 27921 27923 28
22339 27921 27924 28
22340 27921 27925 28
22341 27926 27927 28
22342 27926 27928 28
22343 27926 27929 28
22344 27926 27930 28
22345 27931 27932 28
22346 27931 27933 28
22347 27931 27934 28
22348 27931 27935 28
22349 27936 27937 28
22350 27936 27938 28
22351 27936 27939 28
22352 27936 27940 28
22353 27941 27942 28
22354 27941 27943 28
22355 27941 27944 28
22356 27941 27945 28
22357 27946 27947 28
22358 27946 27948 28
22359 27946 27949 28
22360 27946 27950 28
22361 27951 27952 28
22362 27951 27953 28
22363 27951 27954 28
22364 27951 27955 28
22365 27956 27957 28
22366 27956 27958 28
22367 27956 27959 28
22368 27956 27960 28
22369 27961 27962 28
22370 27961 27963 28
22371 27961 27964 28
22372 27961 27965 28
22373 27966 27967 28
22374 27966 27968 28
22375 27966 27969 28
22376 27966 27970 28
22377 27971 27972 28
22378 27971 27973 28
22379 27971 27974 28
22380 27971 27975 28
22381 27976 27977 28
22382 27976 27978 28
22383 27976 27979 28
22384 27976 27980 28
22385 27981 27982 28
22386 27981 27983 28
22387 27981 27984 28
22388 27981 27985 28
22389 27986 27987 28
22390 27986 27988 28
22391 27986 27989 28
22392 27986 27990 28
22393 27991 27992 28
22394 27991 27993 28
22395 27991 27994 28
22396 27991 27995 28
22397 27996 27997 28
22398 27996 27998 28
22399 27996 27999 28
22400 27996 28000 28
22401 28001 28002 28
22402 28001 28003 28
22403 28001 28004 28
22404 28001 28005 28
22405 28006 28007 28
22406 28006 28008 28
22407 28006 28009 28
22408 28006 28010 28
22409 28011 28012 28
22410 28011 28013 28
22411 28011 28014 28
22412 28011 28015 28
22413 28016 28017 28
22414 28016 28018 28
22415 28016 28019 28
22416 28016 28020 28
22417 28021 28022 28
22418 28021 28023 28
22419 28021 28024 28
22420 28021 28025 28
22421 28026 28027 28
22422 28026 28028 28
22423 28026 28029 28
22424 28026 28030 28
22425 28031 28032 28
22426 28031 28033 28
22427 28031 28034 28
22428 28031 28035 28
22429 28036 28037 28
22430 28036 28038 28
22431 28036 28039 28
22432 28036 28040 28
22433 28041 28042 28
22434 28041 28043 28
22435 28041 28044 28
22436 28041 28045 28
22437 28046 28047 28
22438 28046 28048 28
22439 28046 28049 28
22440 28046 28050 28
22441 28051 28052 28
22442 28051 28053 28
22443 28051 28054 28
22444 28051 28055 28
22445 28056 28057 28
22446 28056 28058 28
22447 28056 28059 28
22448 28056 28060 28
22449 28061 28062 28
22450 28061 28063 28
22451 28061 28064 28
22452 28061 28065 28
22453 28066 28067 28
22454 28066 28068 28
22455 28066 28069 28
22456 28066 28070 28
22457 28071 28072 28
22458 28071 28073 28
22459 28071 28074 28
22460 28071 28075 28
22461 28076 28077 28
22462 28076 28078 28
22463 28076 28079 28
22464 28076 28080 28
22465 28081 28082 28
22466 28081 28083 28
22467 28081 28084 28
22468 28081 28085 28
22469 28086 28087 28
22470 28086 28088 28
22471 28086 28089 28
22472 28086 28090 28
22473 28091 28092 28
22474 28091 28093 28
22475 28091 28094 28
22476 28091 28095 28
22477 28096 28097 28
22478 28096 28098 28
22479 28096 28099 28
22480 28096 28100 28
22481 28101 28102 28
22482 28101 28103 28
22483 28101 28104 28
22484 28101 28105 28
22485 28106 28107 28
22486 28106 28108 28
22487 28106 28109 28
22488 28106 28110 28
22489 28111 28112 28
22490 28111 28113 28
22491 28111 28114 28
22492 28111 28115 28
22493 28116 28117 28
22494 28116 28118 28
22495 28116 28119 28
22496 28116 28120 28
22497 28121 28122 28
22498 28121 28123 28
22499 28121 28124 28
22500 28121 28125 28
22501 28126 28127 28
22502 28126 28128 28
22503 28126 28129 28
22504 28126 28130 28
22505 28131 28132 28
22506 28131 28133 28
22507 28131 28134 28
22508 28131 28135 28
22509 28136 28137 28
22510 28136 28138 28
22511 28136 28139 28
22512 28136 28140 28
22513 28141 28142 28
22514 28141 28143 28
22515 28141 28144 28
22516 28141 28145 28
22517 28146 28147 28
22518 28146 28148 28
22519 28146 28149 28
22520 28146 28150 28
22521 28151 28152 28
22522 28151 28153 28
22523 28151 28154 28
22524 28151 28155 28
22525 28156 28157 28
22526 28156 28158 28
22527 28156 28159 28
22528 28156 28160 28
22529 28161 28162 28
22530 28161 28163 28
22531 28161 28164 28
22532 28161 28165 28
22533 28166 28167 28
22534 28166 28168 28
22535 28166 28169 28
22536 28166 28170 28
22537 28171 28172 28
22538 28171 28173 28
22539 28171 28174 28
22540 28171 28175 28
22541 28176 28177 28
22542 28176 28178 28
22543 28176 28179 28
22544 28176 28180 28
22545 28181 28182 28
22546 28181 28183 28
22547 28181 28184 28
22548 28181 28185 28
22549 28186 28187 28
22550 28186 28188 28
22551 28186 28189 28
22552 28186 28190 28
22553 28191 28192 28
22554 28191 28193 28
22555 28191 28194 28
22556 28191 28195 28
22557 28196 28197 28
22558 28196 28198 28
22559 28196 28199 28
22560 28196 28200 28
22561 28201 28202 28
22562 28201 28203 28
22563 28201 28204 28
22564 28201 28205 28
22565 28206 28207 28
22566 28206 28208 28
22567 28206 28209 28
22568 28206 28210 28
22569 28211 28212 28
22570 28211 28213 28
22571 28211 28214 28
22572 28211 28215 28
22573 28216 28217 28
22574 28216 28218 28
22575 28216 28219 28
22576 28216 28220 28
22577 28221 28222 28
22578 28221 28223 28
22579 28221 28224 28
22580 28221 28225 28
22581 28226 28227 28
22582 28226 28228 28
22583 28226 28229 28
22584 28226 28230 28
22585 28231 28232 28
22586 28231 28233 28
22587 28231 28234 28
22588 28231 28235 28
22589 28236 28237 28
22590 28236 28238 28
22591 28236 28239 28
22592 28236 28240 28
22593 28241 28242 28
22594 28241 28243 28
22595 28241 28244 28
22596 28241 28245 28
22597 28246 28247 28
22598 28246 28248 28
22599 28246 28249 28
22600 28246 28250 28
22601 28251 28252 28
22602 28251 28253 28
22603 28251 28254 28
22604 28251 28255 28
22605 28256 28257 28
22606 28256 28258 28
22607 28256 28259 28
22608 28256 28260 28
22609 28261 28262 28
22610 28261 28263 28
22611 28261 28264 28
22612 28261 28265 28
22613 28266 28267 28
22614 28266 28268 28
22615 28266 28269 28
22616 28266 28270 28
22617 28271 28272 28
22618 28271 28273 28
22619 28271 28274 28
22620 28271 28275 28
22621 28276 28277 28
22622 28276 28278 28
22623 28276 28279 28
22624 28276 28280 28
22625 28281 28282 28
22626 28281 28283 28
22627 28281 28284 28
22628 28281 28285 28
22629 28286 28287 28
22630 28286 28288 28
22631 28286 28289 28
22632 28286 28290 28
22633 28291 28292 28
22634 28291 28293 28
22635 28291 28294 28
22636 28291 28295 28
22637 28296 28297 28
22638 28296 28298 28
22639 28296 28299 28
22640 28296 28300 28
22641 28301 28302 28
22642 28301 28303 28
22643 28301 28304 28
22644 28301 28305 28
22645 28306 28307 28
22646 28306 28308 28
22647 28306 28309 28
22648 28306 28310 28
22649 28311 28312 28
22650 28311 28313 28
22651 28311 28314 28
22652 28311 28315 28
22653 28316 28317 28
22654 28316 28318 28
22655 28316 28319 28
22656 28316 28320 28
22657 28321 28322 28
22658 28321 28323 28
22659 28321 28324 28
22660 28321 28325 28
22661 28326 28327 28
22662 28326 28328 28
22663 28326 28329 28
22664 28326 28330 28
22665 28331 28332 28
22666 28331 28333 28
22667 28331 28334 28
22668 28331 28335 28
22669 28336 28337 28
22670 28336 28338 28
22671 28336 28339 28
22672 28336 28340 28
22673 28341 28342 28
22674 28341 28343 28
22675 28341 28344 28
22676 28341 28345 28
22677 28346 28347 28
22678 28346 28348 28
22679 28346 28349 28
22680 28346 28350 28
22681 28351 28352 28
22682 28351 28353 28
22683 28351 28354 28
22684 28351 28355 28
22685 28356 28357 28
22686 28356 28358 28
22687 28356 28359 28
22688 28356 28360 28
22689 28361 28362 28
22690 28361 28363 28
22691 28361 28364 28
22692 28361 28365 28
22693 28366 28367 28
22694 28366 28368 28
22695 28366 28369 28
22696 28366 28370 28
22697 28371 28372 28
22698 28371 28373 28
22699 28371 28374 28
22700 28371 28375 28
22701 28376 28377 28
22702 28376 28378 28
22703 28376 28379 28
22704 28376 28380 28
22705 28381 28382 28
22706 28381 28383 28
22707 28381 28384 28
22708 28381 28385 28
22709 28386 28387 28
22710 28386 28388 28
22711 28386 28389 28
22712 28386 28390 28
22713 28391 28392 28
22714 28391 28393 28
22715 28391 28394 28
22716 28391 28395 28
22717 28396 28397 28
22718 28396 28398 28
22719 28396 28399 28
22720 28396 28400 28
22721 28401 28402 28
22722 28401 28403 28
22723 28401 28404 28
22724 28401 28405 28
22725 28406 28407 28
22726 28406 28408 28
22727 28406 28409 28
22728 28406 28410 28
22729 28411 28412 28
22730 28411 28413 28
22731 28411 28414 28
22732 28411 28415 28
22733 28416 28417 28
22734 28416 28418 28
22735 28416 28419 28
22736 28416 28420 28
22737 28421 28422 28
22738 28421 28423 28
22739 28421 28424 28
22740 28421 28425 28
22741 28426 28427 28
22742 28426 28428 28
22743 28426 28429 28
22744 28426 28430 28
22745 28431 28432 28
22746 28431 28433 28
22747 28431 28434 28
22748 28431 28435 28
22749 28436 28437 28
22750 28436 28438 28
22751 28436 28439 28
22752 28436 28440 28
22753 28441 28442 28
22754 28441 28443 28
22755 28441 28444 28
22756 28441 28445 28
22757 28446 28447 28
22758 28446 28448 28
22759 28446 28449 28
22760 28446 28450 28
22761 28451 28452 28
22762 28451 28453 28
22763 28451 28454 28
22764 28451 28455 28
22765 28456 28457 28
22766 28456 28458 28
22767 28456 28459 28
22768 28456 28460 28
22769 28461 28462 28
22770 28461 28463 28
22771 28461 28464 28
22772 28461 28465 28
22773 28466 28467 28
22774 28466 28468 28
22775 28466 28469 28
22776 28466 28470 28
22777 28471 28472 28
22778 28471 28473 28
22779 28471 28474 28
22780 28471 28475 28
22781 28476 28477 28
22782 28476 28478 28
22783 28476 28479 28
22784 28476 28480 28
22785 28481 28482 28
22786 28481 28483 28
22787 28481 28484 28
22788 28481 28485 28
22789 28486 28487 28
22790 28486 28488 28
22791 28486 28489 28
22792 28486 28490 28
22793 28491 28492 28
22794 28491 28493 28
22795 28491 28494 28
22796 28491 28495 28
22797 28496 28497 28
22798 28496 28498 28
22799 28496 28499 28
22800 28496 28500 28
22801 28501 28502 28
22802 28501 28503 28
22803 28501 28504 28
22804 28501 28505 28
22805 28506 28507 28
22806 28506 28508 28
22807 28506 28509 28
22808 28506 28510 28
22809 28511 28512 28
22810 28511 28513 28
22811 28511 28514 28
22812 28511 28515 28
22813 28516 28517 28
22814 28516 28518 28
22815 28516 28519 28
22816 28516 28520 28
22817 28521 28522 28
22818 28521 28523 28
22819 28521 28524 28
22820 28521 28525 28
22821 28526 28527 28
22822 28526 28528 28
22823 28526 28529 28
22824 28526 28530 28
22825 28531 28532 28
22826 28531 28533 28
22827 28531 28534 28
22828 28531 28535 28
22829 28536 28537 28
22830 28536 28538 28
22831 28536 28539 28
22832 28536 28540 28
22833 28541 28542 28
22834 28541 28543 28
22835 28541 28544 28
22836 28541 28545 28
22837 28546 28547 28
22838 28546 28548 28
22839 28546 28549 28
22840 28546 28550 28
22841 28551 28552 28
22842 28551 28553 28
22843 28551 28554 28
22844 28551 28555 28
22845 28556 28557 28
22846 28556 28558 28
22847 28556 28559 28
22848 28556 28560 28
22849 28561 28562 28
22850 28561 28563 28
22851 28561 28564 28
22852 28561 28565 28
22853 28566 28567 28
22854 28566 28568 28
22855 28566 28569 28
22856 28566 28570 28
22857 28571 28572 28
22858 28571 28573 28
22859 28571 28574 28
22860 28571 28575 28
22861 28576 28577 28
22862 28576 28578 28
22863 28576 28579 28
22864 28576 28580 28
22865 28581 28582 28
22866 28581 28583 28
22867 28581 28584 28
22868 28581 28585 28
22869 28586 28587 28
22870 28586 28588 28
22871 28586 28589 28
22872 28586 28590 28
22873 28591 28592 28
22874 28591 28593 28
22875 28591 28594 28
22876 28591 28595 28
22877 28596 28597 28
22878 28596 28598 28
22879 28596 28599 28
22880 28596 28600 28
22881 28601 28602 28
22882 28601 28603 28
22883 28601 28604 28
22884 28601 28605 28
22885 28606 28607 28
22886 28606 28608 28
22887 28606 28609 28
22888 28606 28610 28
22889 28611 28612 28
22890 28611 28613 28
22891 28611 28614 28
22892 28611 28615 28
22893 28616 28617 28
22894 28616 28618 28
22895 28616 28619 28
22896 28616 28620 28
22897 28621 28622 28
22898 28621 28623 28
22899 28621 28624 28
22900 28621 28625 28
22901 28626 28627 28
22902 28626 28628 28
22903 28626 28629 28
22904 28626 28630 28
22905 28631 28632 28
22906 28631 28633 28
22907 28631 28634 28
22908 28631 28635 28
22909 28636 28637 28
22910 28636 28638 28
22911 28636 28639 28
22912 28636 28640 28
22913 28641 28642 28
22914 28641 28643 28
22915 28641 28644 28
22916 28641 28645 28
22917 28646 28647 28
22918 28646 28648 28
22919 28646 28649 28
22920 28646 28650 28
22921 28651 28652 28
22922 28651 28653 28
22923 28651 28654 28
22924 28651 28655 28
22925 28656 28657 28
22926 28656 28658 28
22927 28656 28659 28
22928 28656 28660 28
22929 28661 28662 28
22930 28661 28663 28
22931 28661 28664 28
22932 28661 28665 28
22933 28666 28667 28
22934 28666 28668 28
22935 28666 28669 28
22936 28666 28670 28
22937 28671 28672 28
22938 28671 28673 28
22939 28671 28674 28
22940 28671 28675 28
22941 28676 28677 28
22942 28676 28678 28
22943 28676 28679 28
22944 28676 28680 28
22945 28681 28682 28
22946 28681 28683 28
22947 28681 28684 28
22948 28681 28685 28
22949 28686 28687 28
22950 28686 28688 28
22951 28686 28689 28
22952 28686 28690 28
22953 28691 28692 28
22954 28691 28693 28
22955 28691 28694 28
22956 28691 28695 28
22957 28696 28697 28
22958 28696 28698 28
22959 28696 28699 28
22960 28696 28700 28
22961 28701 28702 28
22962 28701 28703 28
22963 28701 28704 28
22964 28701 28705 28
22965 28706 28707 28
22966 28706 28708 28
22967 28706 28709 28
22968 28706 28710 28
22969 28711 28712 28
22970 28711 28713 28
22971 28711 28714 28
22972 28711 28715 28
22973 28716 28717 28
22974 28716 28718 28
22975 28716 28719 28
22976 28716 28720 28
22977 28721 28722 28
22978 28721 28723 28
22979 28721 28724 28
22980 28721 28725 28
22981 28726 28727 28
22982 28726 28728 28
22983 28726 28729 28
22984 28726 28730 28
22985 28731 28732 28
22986 28731 28733 28
22987 28731 28734 28
22988 28731 28735 28
22989 28736 28737 28
22990 28736 28738 28
22991 28736 28739 28
22992 28736 28740 28
22993 28741 28742 28
22994 28741 28743 28
22995 28741 28744 28
22996 28741 28745 28
22997 28746 28747 28
22998 28746 28748 28
22999 28746 28749 28
23000 28746 28750 28
23001 28751 28752 28
23002 28751 28753 28
23003 28751 28754 28
23004 28751 28755 28
23005 28756 28757 28
23006 28756 28758 28
23007 28756 28759 28
23008 28756 28760 28
23009 28761 28762 28
23010 28761 28763 28
23011 28761 28764 28
23012 28761 28765 28
23013 28766 28767 28
23014 28766 28768 28
23015 28766 28769 28
23016 28766 28770 28
23017 28771 28772 28
23018 28771 28773 28
23019 28771 28774 28
23020 28771 28775 28
23021 28776 28777 28
23022 28776 28778 28
23023 28776 28779 28
23024 28776 28780 28
23025 28781 28782 28
23026 28781 28783 28
23027 28781 28784 28
23028 28781 28785 28
23029 28786 28787 28
23030 28786 28788 28
23031 28786 28789 28
23032 28786 28790 28
23033 28791 28792 28
23034 28791 28793 28
23035 28791 28794 28
23036 28791 28795 28
23037 28796 28797 28
23038 28796 28798 28
23039 28796 28799 28
23040 28796 28800 28
23041 28801 28802 28
23042 28801 28803 28
23043 28801 28804 28
23044 28801 28805 28
23045 28806 28807 28
23046 28806 28808 28
23047 28806 28809 28
23048 28806 28810 28
23049 28811 28812 28
23050 28811 28813 28
23051 28811 28814 28
23052 28811 28815 28
23053 28816 28817 28
23054 28816 28818 28
23055 28816 28819 28
23056 28816 28820 28
23057 28821 28822 28
23058 28821 28823 28
23059 28821 28824 28
23060 28821 28825 28
23061 28826 28827 28
23062 28826 28828 28
23063 28826 28829 28
23064 28826 28830 28
23065 28831 28832 28
23066 28831 28833 28
23067 28831 28834 28
23068 28831 28835 28
23069 28836 28837 28
23070 28836 28838 28
23071 28836 28839 28
23072 28836 28840 28
23073 28841 28842 28
23074 28841 28843 28
23075 28841 28844 28
23076 28841 28845 28
23077 28846 28847 28
23078 28846 28848 28
23079 28846 28849 28
23080 28846 28850 28
23081 28851 28852 28
23082 28851 28853 28
23083 28851 28854 28
23084 28851 28855 28
23085 28856 28857 28
23086 28856 28858 28
23087 28856 28859 28
23088 28856 28860 28
23089 28861 28862 28
23090 28861 28863 28
23091 28861 28864 28
23092 28861 28865 28
23093 28866 28867 28
23094 28866 28868 28
23095 28866 28869 28
23096 28866 28870 28
23097 28871 28872 28
23098 28871 28873 28
23099 28871 28874 28
23100 28871 28875 28
23101 28876 28877 28
23102 28876 28878 28
23103 28876 28879 28
23104 28876 28880 28
23105 28881 28882 28
23106 28881 28883 28
23107 28881 28884 28
23108 28881 28885 28
23109 28886 28887 28
23110 28886 28888 28
23111 28886 28889 28
23112 28886 28890 28
23113 28891 28892 28
23114 28891 28893 28
23115 28891 28894 28
23116 28891 28895 28
23117 28896 28897 28
23118 28896 28898 28
23119 28896 28899 28
23120 28896 28900 28
23121 28901 28902 28
23122 28901 28903 28
23123 28901 28904 28
23124 28901 28905 28
23125 28906 28907 28
23126 28906 28908 28
23127 28906 28909 28
23128 28906 28910 28
23129 28911 28912 28
23130 28911 28913 28
23131 28911 28914 28
23132 28911 28915 28
23133 28916 28917 28
23134 28916 28918 28
23135 28916 28919 28
23136 28916 28920 28
23137 28921 28922 28
23138 28921 28923 28
23139 28921 28924 28
23140 28921 28925 28
23141 28926 28927 28
23142 28926 28928 28
23143 28926 28929 28
23144 28926 28930 28
23145 28931 28932 28
23146 28931 28933 28
23147 28931 28934 28
23148 28931 28935 28
23149 28936 28937 28
23150 28936 28938 28
23151 28936 28939 28
23152 28936 28940 28
23153 28941 28942 28
23154 28941 28943 28
23155 28941 28944 28
23156 28941 28945 28
23157 28946 28947 28
23158 28946 28948 28
23159 28946 28949 28
23160 28946 28950 28
23161 28951 28952 28
23162 28951 28953 28
23163 28951 28954 28
23164 28951 28955 28
23165 28956 28957 28
23166 28956 28958 28
23167 28956 28959 28
23168 28956 28960 28
23169 28961 28962 28
23170 28961 28963 28
23171 28961 28964 28
23172 28961 28965 28
23173 28966 28967 28
23174 28966 28968 28
23175 28966 28969 28
23176 28966 28970 28
23177 28971 28972 28
23178 28971 28973 28
23179 28971 28974 28
23180 28971 28975 28
23181 28976 28977 28
23182 28976 28978 28
23183 28976 28979 28
23184 28976 28980 28
23185 28981 28982 28
23186 28981 28983 28
23187 28981 28984 28
23188 28981 28985 28
23189 28986 28987 28
23190 28986 28988 28
23191 28986 28989 28
23192 28986 28990 28
23193 28991 28992 28
23194 28991 28993 28
23195 28991 28994 28
23196 28991 28995 28
23197 28996 28997 28
23198 28996 28998 28
23199 28996 28999 28
23200 28996 29000 28
23201 29001 29002 28
23202 29001 29003 28
23203 29001 29004 28
23204 29001 29005 28
23205 29006 29007 28
23206 29006 29008 28
23207 29006 29009 28
23208 29006 29010 28
23209 29011 29012 28
23210 29011 29013 28
23211 29011 29014 28
23212 29011 29015 28
23213 29016 29017 28
23214 29016 29018 28
23215 29016 29019 28
23216 29016 29020 28
23217 29021 29022 28
23218 29021 29023 28
23219 29021 29024 28
23220 29021 29025 28
23221 29026 29027 28
23222 29026 29028 28
23223 29026 29029 28
23224 29026 29030 28
23225 29031 29032 28
23226 29031 29033 28
23227 29031 29034 28
23228 29031 29035 28
23229 29036 29037 28
23230 29036 29038 28
23231 29036 29039 28
23232 29036 29040 28
23233 29041 29042 28
23234 29041 29043 28
23235 29041 29044 28
23236 29041 29045 28
23237 29046 29047 28
23238 29046 29048 28
23239 29046 29049 28
23240 29046 29050 28
23241 29051 29052 28
23242 29051 29053 28
23243 29051 29054 28
23244 29051 29055 28
23245 29056 29057 28
23246 29056 29058 28
23247 29056 29059 28
23248 29056 29060 28
23249 29061 29062 28
23250 29061 29063 28
23251 29061 29064 28
23252 29061 29065 28
23253 29066 29067 28
23254 29066 29068 28
23255 29066 29069 28
23256 29066 29070 28
23257 29071 29072 28
23258 29071 29073 28
23259 29071 29074 28
23260 29071 29075 28
23261 29076 29077 28
23262 29076 29078 28
23263 29076 29079 28
23264 29076 29080 28
23265 29081 29082 28
23266 29081 29083 28
23267 29081 29084 28
23268 29081 29085 28
23269 29086 29087 28
23270 29086 29088 28
23271 29086 29089 28
23272 29086 29090 28
23273 29091 29092 28
23274 29091 29093 28
23275 29091 29094 28
23276 29091 29095 28
23277 29096 29097 28
23278 29096 29098 28
23279 29096 29099 28
23280 29096 29100 28
23281 29101 29102 28
23282 29101 29103 28
23283 29101 29104 28
23284 29101 29105 28
23285 29106 29107 28
23286 29106 29108 28
23287 29106 29109 28
23288 29106 29110 28
23289 29111 29112 28
23290 29111 29113 28
23291 29111 29114 28
23292 29111 29115 28
23293 29116 29117 28
23294 29116 29118 28
23295 29116 29119 28
23296 29116 29120 28
23297 29121 29122 28
23298 29121 29123 28
23299 29121 29124 28
23300 29121 29125 28
23301 29126 29127 28
23302 29126 29128 28
23303 29126 29129 28
23304 29126 29130 28
23305 29131 29132 28
23306 29131 29133 28
23307 29131 29134 28
23308 29131 29135 28
23309 29136 29137 28
23310 29136 29138 28
23311 29136 29139 28
23312 29136 29140 28
23313 29141 29142 28
23314 29141 29143 28
23315 29141 29144 28
23316 29141 29145 28
23317 29146 29147 28
23318 29146 29148 28
23319 29146 29149 28
23320 29146 29150 28
23321 29151 29152 28
23322 29151 29153 28
23323 29151 29154 28
23324 29151 29155 28
23325 29156 29157 28
23326 29156 29158 28
23327 29156 29159 28
23328 29156 29160 28
23329 29161 29162 28
23330 29161 29163 28
23331 29161 29164 28
23332 29161 29165 28
23333 29166 29167 28
23334 29166 29168 28
23335 29166 29169 28
23336 29166 29170 28
23337 29171 29172 28
23338 29171 29173 28
23339 29171 29174 28
23340 29171 29175 28
23341 29176 29177 28
23342 29176 29178 28
23343 29176 29179 28
23344 29176 29180 28
23345 29181 29182 28
23346 29181 29183 28
23347 29181 29184 28
23348 29181 29185 28
23349 29186 29187 28
23350 29186 29188 28
23351 29186 29189 28
23352 29186 29190 28
23353 29191 29192 28
23354 29191 29193 28
23355 29191 29194 28
23356 29191 29195 28
23357 29196 29197 28
23358 29196 29198 28
23359 29196 29199 28
23360 29196 29200 28
23361 29201 29202 28
23362 29201 29203 28
23363 29201 29204 28
23364 29201 29205 28
23365 29206 29207 28
23366 29206 29208 28
23367 29206 29209 28
23368 29206 29210 28
23369 29211 29212 28
23370 29211 29213 28
23371 29211 29214 28
23372 29211 29215 28
23373 29216 29217 28
23374 29216 29218 28
23375 29216 29219 28
23376 29216 29220 28
23377 29221 29222 28
23378 29221 29223 28
23379 29221 29224 28
23380 29221 29225 28
23381 29226 29227 28
23382 29226 29228 28
23383 29226 29229 28
23384 29226 29230 28
23385 29231 29232 28
23386 29231 29233 28
23387 29231 29234 28
23388 29231 29235 28
23389 29236 29237 28
23390 29236 29238 28
23391 29236 29239 28
23392 29236 29240 28
23393 29241 29242 28
23394 29241 29243 28
23395 29241 29244 28
23396 29241 29245 28
23397 29246 29247 28
23398 29246 29248 28
23399 29246 29249 28
23400 29246 29250 28
23401 29251 29252 28
23402 29251 29253 28
23403 29251 29254 28
23404 29251 29255 28
23405 29256 29257 28
23406 29256 29258 28
23407 29256 29259 28
23408 29256 29260 28
23409 29261 29262 28
23410 29261 29263 28
23411 29261 29264 28
23412 29261 29265 28
23413 29266 29267 28
23414 29266 29268 28
23415 29266 29269 28
23416 29266 29270 28
23417 29271 29272 28
23418 29271 29273 28
23419 29271 29274 28
23420 29271 29275 28
23421 29276 29277 28
23422 29276 29278 28
23423 29276 29279 28
23424 29276 29280 28
23425 29281 29282 28
23426 29281 29283 28
23427 29281 29284 28
23428 29281 29285 28
23429 29286 29287 28
23430 29286 29288 28
23431 29286 29289 28
23432 29286 29290 28
23433 29291 29292 28
23434 29291 29293 28
23435 29291 29294 28
23436 29291 29295 28
23437 29296 29297 28
23438 29296 29298 28
23439 29296 29299 28
23440 29296 29300 28
23441 29301 29302 28
23442 29301 29303 28
23443 29301 29304 28
23444 29301 29305 28
23445 29306 29307 28
23446 29306 29308 28
23447 29306 29309 28
23448 29306 29310 28
23449 29311 29312 28
23450 29311 29313 28
23451 29311 29314 28
23452 29311 29315 28
23453 29316 29317 28
23454 29316 29318 28
23455 29316 29319 28
23456 29316 29320 28
23457 29321 29322 28
23458 29321 29323 28
23459 29321 29324 28
23460 29321 29325 28
23461 29326 29327 28
23462 29326 29328 28
23463 29326 29329 28
23464 29326 29330 28
23465 29331 29332 28
23466 29331 29333 28
23467 29331 29334 28
23468 29331 29335 28
23469 29336 29337 28
23470 29336 29338 28
23471 29336 29339 28
23472 29336 29340 28
23473 29341 29342 28
23474 29341 29343 28
23475 29341 29344 28
23476 29341 29345 28
23477 29346 29347 28
23478 29346 29348 28
23479 29346 29349 28
23480 29346 29350 28
23481 29351 29352 28
23482 29351 29353 28
23483 29351 29354 28
23484 29351 29355 28
23485 29356 29357 28
23486 29356 29358 28
23487 29356 29359 28
23488 29356 29360 28
23489 29361 29362 28
23490 29361 29363 28
23491 29361 29364 28
23492 29361 29365 28
23493 29366 29367 28
23494 29366 29368 28
23495 29366 29369 28
23496 29366 29370 28
23497 29371 29372 28
23498 29371 29373 28
23499 29371 29374 28
23500 29371 29375 28
23501 29376 29377 28
23502 29376 29378 28
23503 29376 29379 28
23504 29376 29380 28
23505 29381 29382 28
23506 29381 29383 28
23507 29381 29384 28
23508 29381 29385 28
23509 29386 29387 28
23510 29386 29388 28
23511 29386 29389 28
23512 29386 29390 28
23513 29391 29392 28
23514 29391 29393 28
23515 29391 29394 28
23516 29391 29395 28
23517 29396 29397 28
23518 29396 29398 28
23519 29396 29399 28
23520 29396 29400 28
23521 29401 29402 28
23522 29401 29403 28
23523 29401 29404 28
23524 29401 29405 28
23525 29406 29407 28
23526 29406 29408 28
23527 29406 29409 28
23528 29406 29410 28
23529 29411 29412 28
23530 29411 29413 28
23531 29411 29414 28
23532 29411 29415 28
23533 29416 29417 28
23534 29416 29418 28
23535 29416 29419 28
23536 29416 29420 28
23537 29421 29422 28
23538 29421 29423 28
23539 29421 29424 28
23540 29421 29425 28
23541 29426 29427 28
23542 29426 29428 28
23543 29426 29429 28
23544 29426 29430 28
23545 29431 29432 28
23546 29431 29433 28
23547 29431 29434 28
23548 29431 29435 28
23549 29436 29437 28
23550 29436 29438 28
23551 29436 29439 28
23552 29436 29440 28
23553 29441 29442 28
23554 29441 29443 28
23555 29441 29444 28
23556 29441 29445 28
23557 29446 29447 28
23558 29446 29448 28
23559 29446 29449 28
23560 29446 29450 28
23561 29451 29452 28
23562 29451 29453 28
23563 29451 29454 28
23564 29451 29455 28
23565 29456 29457 28
23566 29456 29458 28
23567 29456 29459 28
23568 29456 29460 28
23569 29461 29462 28
23570 29461 29463 28
23571 29461 29464 28
23572 29461 29465 28
23573 29466 29467 28
23574 29466 29468 28
23575 29466 29469 28
23576 29466 29470 28
23577 29471 29472 28
23578 29471 29473 28
23579 29471 29474 28
23580 29471 29475 28
23581 29476 29477 28
23582 29476 29478 28
23583 29476 29479 28
23584 29476 29480 28
23585 29481 29482 28
23586 29481 29483 28
23587 29481 29484 28
23588 29481 29485 28
23589 29486 29487 28
23590 29486 29488 28
23591 29486 29489 28
23592 29486 29490 28
23593 29491 29492 28
23594 29491 29493 28
23595 29491 29494 28
23596 29491 29495 28
23597 29496 29497 28
23598 29496 29498 28
23599 29496 29499 28
23600 29496 29500 28
23601 29501 29502 28
23602 29501 29503 28
23603 29501 29504 28
23604 29501 29505 28
23605 29506 29507 28
23606 29506 29508 28
23607 29506 29509 28
23608 29506 29510 28
23609 29511 29512 28
23610 29511 29513 28
23611 29511 29514 28
23612 29511 29515 28
23613 29516 29517 28
23614 29516 29518 28
23615 29516 29519 28
23616 29516 29520 28
23617 29521 29522 28
23618 29521 29523 28
23619 29521 29524 28
23620 29521 29525 28
23621 29526 29527 28
23622 29526 29528 28
23623 29526 29529 28
23624 29526 29530 28
23625 29531 29532 28
23626 29531 29533 28
23627 29531 29534 28
23628 29531 29535 28
23629 29536 29537 28
23630 29536 29538 28
23631 29536 29539 28
23632 29536 29540 28
23633 29541 29542 28
23634 29541 29543 28
23635 29541 29544 28
23636 29541 29545 28
23637 29546 29547 28
23638 29546 29548 28
23639 29546 29549 28
23640 29546 29550 28
23641 29551 29552 28
23642 29551 29553 28
23643 29551 29554 28
23644 29551 29555 28
23645 29556 29557 28
23646 29556 29558 28
23647 29556 29559 28
23648 29556 29560 28
23649 29561 29562 28
23650 29561 29563 28
23651 29561 29564 28
23652 29561 29565 28
23653 29566 29567 28
23654 29566 29568 28
23655 29566 29569 28
23656 29566 29570 28
23657 29571 29572 28
23658 29571 29573 28
23659 29571 29574 28
23660 29571 29575 28
23661 29576 29577 28
23662 29576 29578 28
23663 29576 29579 28
23664 29576 29580 28
23665 29581 29582 28
23666 29581 29583 28
23667 29581 29584 28
23668 29581 29585 28
23669 29586 29587 28
23670 29586 29588 28
23671 29586 29589 28
23672 29586 29590 28
23673 29591 29592 28
23674 29591 29593 28
23675 29591 29594 28
23676 29591 29595 28
23677 29596 29597 28
23678 29596 29598 28
23679 29596 29599 28
23680 29596 29600 28
23681 29601 29602 28
23682 29601 29603 28
23683 29601 29604 28
23684 29601 29605 28
23685 29606 29607 28
23686 29606 29608 28
23687 29606 29609 28
23688 29606 29610 28
23689 29611 29612 28
23690 29611 29613 28
23691 29611 29614 28
23692 29611 29615 28
23693 29616 29617 28
23694 29616 29618 28
23695 29616 29619 28
23696 29616 29620 28
23697 29621 29622 28
23698 29621 29623 28
23699 29621 29624 28
23700 29621 29625 28
23701 29626 29627 28
23702 29626 29628 28
23703 29626 29629 28
23704 29626 29630 28
23705 29631 29632 28
23706 29631 29633 28
23707 29631 29634 28
23708 29631 29635 28
23709 29636 29637 28
23710 29636 29638 28
23711 29636 29639 28
23712 29636 29640 28
23713 29641 29642 28
23714 29641 29643 28
23715 29641 29644 28
23716 29641 29645 28
23717 29646 29647 28
23718 29646 29648 28
23719 29646 29649 28
23720 29646 29650 28
23721 29651 29652 28
23722 29651 29653 28
23723 29651 29654 28
23724 29651 29655 28
23725 29656 29657 28
23726 29656 29658 28
23727 29656 29659 28
23728 29656 29660 28
23729 29661 29662 28
23730 29661 29663 28
23731 29661 29664 28
23732 29661 29665 28
23733 29666 29667 28
23734 29666 29668 28
23735 29666 29669 28
23736 29666 29670 28
23737 29671 29672 28
23738 29671 29673 28
23739 29671 29674 28
23740 29671 29675 28
23741 29676 29677 28
23742 29676 29678 28
23743 29676 29679 28
23744 29676 29680 28
23745 29681 29682 28
23746 29681 29683 28
23747 29681 29684 28
23748 29681 29685 28
23749 29686 29687 28
23750 29686 29688 28
23751 29686 29689 28
23752 29686 29690 28
23753 29691 29692 28
23754 29691 29693 28
23755 29691 29694 28
23756 29691 29695 28
23757 29696 29697 28
23758 29696 29698 28
23759 29696 29699 28
23760 29696 29700 28
23761 29701 29702 28
23762 29701 29703 28
23763 29701 29704 28
23764 29701 29705 28
23765 29706 29707 28
23766 29706 29708 28
23767 29706 29709 28
23768 29706 29710 28
23769 29711 29712 28
23770 29711 29713 28
23771 29711 29714 28
23772 29711 29715 28
23773 29716 29717 28
23774 29716 29718 28
23775 29716 29719 28
23776 29716 29720 28
23777 29721 29722 28
23778 29721 29723 28
23779 29721 29724 28
23780 29721 29725 28
23781 29726 29727 28
23782 29726 29728 28
23783 29726 29729 28
23784 29726 29730 28
23785 29731 29732 28
23786 29731 29733 28
23787 29731 29734 28
23788 29731 29735 28
23789 29736 29737 28
23790 29736 29738 28
23791 29736 29739 28
23792 29736 29740 28
23793 29741 29742 28
23794 29741 29743 28
23795 29741 29744 28
23796 29741 29745 28
23797 29746 29747 28
23798 29746 29748 28
23799 29746 29749 28
23800 29746 29750 28
23801 29751 29752 28
23802 29751 29753 28
23803 29751 29754 28
23804 29751 29755 28
23805 29756 29757 28
23806 29756 29758 28
23807 29756 29759 28
23808 29756 29760 28
23809 29761 29762 28
23810 29761 29763 28
23811 29761 29764 28
23812 29761 29765 28
23813 29766 29767 28
23814 29766 29768 28
23815 29766 29769 28
23816 29766 29770 28
23817 29771 29772 28
23818 29771 29773 28
23819 29771 29774 28
23820 29771 29775 28
23821 29776 29777 28
23822 29776 29778 28
23823 29776 29779 28
23824 29776 29780 28
23825 29781 29782 28
23826 29781 29783 28
23827 29781 29784 28
23828 29781 29785 28
23829 29786 29787 28
23830 29786 29788 28
23831 29786 29789 28
23832 29786 29790 28
23833 29791 29792 28
23834 29791 29793 28
23835 29791 29794 28
23836 29791 29795 28
23837 29796 29797 28
23838 29796 29798 28
23839 29796 29799 28
23840 29796 29800 28
23841 29801 29802 28
23842 29801 29803 28
23843 29801 29804 28
23844 29801 29805 28
23845 29806 29807 28
23846 29806 29808 28
23847 29806 29809 28
23848 29806 29810 28
23849 29811 29812 28
23850 29811 29813 28
23851 29811 29814 28
23852 29811 29815 28
23853 29816 29817 28
23854 29816 29818 28
23855 29816 29819 28
23856 29816 29820 28
23857 29821 29822 28
23858 29821 29823 28
23859 29821 29824 28
23860 29821 29825 28
23861 29826 29827 28
23862 29826 29828 28
23863 29826 29829 28
23864 29826 29830 28
23865 29831 29832 28
23866 29831 29833 28
23867 29831 29834 28
23868 29831 29835 28
23869 29836 29837 28
23870 29836 29838 28
23871 29836 29839 28
23872 29836 29840 28
23873 29841 29842 28
23874 29841 29843 28
23875 29841 29844 28
23876 29841 29845 28
23877 29846 29847 28
23878 29846 29848 28
23879 29846 29849 28
23880 29846 29850 28
23881 29851 29852 28
23882 29851 29853 28
23883 29851 29854 28
23884 29851 29855 28
23885 29856 29857 28
23886 29856 29858 28
23887 29856 29859 28
23888 29856 29860 28
23889 29861 29862 28
23890 29861 29863 28
23891 29861 29864 28
23892 29861 29865 28
23893 29866 29867 28
23894 29866 29868 28
23895 29866 29869 28
23896 29866 29870 28
23897 29871 29872 28
23898 29871 29873 28
23899 29871 29874 28
23900 29871 29875 28
23901 29876 29877 28
23902 29876 29878 28
23903 29876 29879 28
23904 29876 29880 28
23905 29881 29882 28
23906 29881 29883 28
23907 29881 29884 28
23908 29881 29885 28
23909 29886 29887 28
23910 29886 29888 28
23911 29886 29889 28
23912 29886 29890 28
23913 29891 29892 28
23914 29891 29893 28
23915 29891 29894 28
23916 29891 29895 28
23917 29896 29897 28
23918 29896 29898 28
23919 29896 29899 28
23920 29896 29900 28
23921 29901 29902 28
23922 29901 29903 28
23923 29901 29904 28
23924 29901 29905 28
23925 29906 29907 28
23926 29906 29908 28
23927 29906 29909 28
23928 29906 29910 28
23929 29911 29912 28
23930 29911 29913 28
23931 29911 29914 28
23932 29911 29915 28
23933 29916 29917 28
23934 29916 29918 28
23935 29916 29919 28
23936 29916 29920 28
23937 29921 29922 28
23938 29921 29923 28
23939 29921 29924 28
23940 29921 29925 28
23941 29926 29927 28
23942 29926 29928 28
23943 29926 29929 28
23944 29926 29930 28
23945 29931 29932 28
23946 29931 29933 28
23947 29931 29934 28
23948 29931 29935 28
23949 29936 29937 28
23950 29936 29938 28
23951 29936 29939 28
23952 29936 29940 28
23953 29941 29942 28
23954 29941 29943 28
23955 29941 29944 28
23956 29941 29945 28
23957 29946 29947 28
23958 29946 29948 28
23959 29946 29949 28
23960 29946 29950 28
23961 29951 29952 28
23962 29951 29953 28
23963 29951 29954 28
23964 29951 29955 28
23965 29956 29957 28
23966 29956 29958 28
23967 29956 29959 28
23968 29956 29960 28
23969 29961 29962 28
23970 29961 29963 28
23971 29961 29964 28
23972 29961 29965 28
23973 29966 29967 28
23974 29966 29968 28
23975 29966 29969 28
23976 29966 29970 28
23977 29971 29972 28
23978 29971 29973 28
23979 29971 29974 28
23980 29971 29975 28
23981 29976 29977 28
23982 29976 29978 28
23983 29976 29979 28
23984 29976 29980 28
23985 29981 29982 28
23986 29981 29983 28
23987 29981 29984 28
23988 29981 29985 28
23989 29986 29987 28
23990 29986 29988 28
23991 29986 29989 28
23992 29986 29990 28
23993 29991 29992 28
23994 29991 29993 28
23995 29991 29994 28
23996 29991 29995 28
23997 29996 29997 28
23998 29996 29998 28
23999 29996 29999 28
24000 29996 30000 28
24001 30001 30002 28
24002 30001 30003 28
24003 30001 30004 28
24004 30001 30005 28
24005 30006 30007 28
24006 30006 30008 28
24007 30006 30009 28
24008 30006 30010 28
24009 30011 30012 28
24010 30011 30013 28
24011 30011 30014 28
24012 30011 30015 28
24013 30016 30017 28
24014 30016 30018 28
24015 30016 30019 28
24016 30016 30020 28
24017 30021 30022 28
24018 30021 30023 28
24019 30021 30024 28
24020 30021 30025 28
24021 30026 30027 28
24022 30026 30028 28
24023 30026 30029 28
24024 30026 30030 28
24025 30031 30032 28
24026 30031 30033 28
24027 30031 30034 28
24028 30031 30035 28
24029 30036 30037 28
24030 30036 30038 28
24031 30036 30039 28
24032 30036 30040 28
24033 30041 30042 28
24034 30041 30043 28
24035 30041 30044 28
24036 30041 30045 28
24037 30046 30047 28
24038 30046 30048 28
24039 30046 30049 28
24040 30046 30050 28
24041 30051 30052 28
24042 30051 30053 28
24043 30051 30054 28
24044 30051 30055 28
24045 30056 30057 28
24046 30056 30058 28
24047 30056 30059 28
24048 30056 30060 28
24049 30061 30062 28
24050 30061 30063 28
24051 30061 30064 28
24052 30061 30065 28
24053 30066 30067 28
24054 30066 30068 28
24055 30066 30069 28
24056 30066 30070 28
24057 30071 30072 28
24058 30071 30073 28
24059 30071 30074 28
24060 30071 30075 28
24061 30076 30077 28
24062 30076 30078 28
24063 30076 30079 28
24064 30076 30080 28
24065 30081 30082 28
24066 30081 30083 28
24067 30081 30084 28
24068 30081 30085 28
24069 30086 30087 28
24070 30086 30088 28
24071 30086 30089 28
24072 30086 30090 28
24073 30091 30092 28
24074 30091 30093 28
24075 30091 30094 28
24076 30091 30095 28
24077 30096 30097 28
24078 30096 30098 28
24079 30096 30099 28
24080 30096 30100 28
24081 30101 30102 28
24082 30101 30103 28
24083 30101 30104 28
24084 30101 30105 28
24085 30106 30107 28
24086 30106 30108 28
24087 30106 30109 28
24088 30106 30110 28
24089 30111 30112 28
24090 30111 30113 28
24091 30111 30114 28
24092 30111 30115 28
24093 30116 30117 28
24094 30116 30118 28
24095 30116 30119 28
24096 30116 30120 28
24097 30121 30122 28
24098 30121 30123 28
24099 30121 30124 28
24100 30121 30125 28
24101 30126 30127 28
24102 30126 30128 28
24103 30126 30129 28
24104 30126 30130 28
24105 30131 30132 28
24106 30131 30133 28
24107 30131 30134 28
24108 30131 30135 28
24109 30136 30137 28
24110 30136 30138 28
24111 30136 30139 28
24112 30136 30140 28
24113 30141 30142 28
24114 30141 30143 28
24115 30141 30144 28
24116 30141 30145 28
24117 30146 30147 28
24118 30146 30148 28
24119 30146 30149 28
24120 30146 30150 28
24121 30151 30152 28
24122 30151 30153 28
24123 30151 30154 28
24124 30151 30155 28
24125 30156 30157 28
24126 30156 30158 28
24127 30156 30159 28
24128 30156 30160 28
24129 30161 30162 28
24130 30161 30163 28
24131 30161 30164 28
24132 30161 30165 28
24133 30166 30167 28
24134 30166 30168 28
24135 30166 30169 28
24136 30166 30170 28
24137 30171 30172 28
24138 30171 30173 28
24139 30171 30174 28
24140 30171 30175 28
24141 30176 30177 28
24142 30176 30178 28
24143 30176 30179 28
24144 30176 30180 28
24145 30181 30182 28
24146 30181 30183 28
24147 30181 30184 28
24148 30181 30185 28
24149 30186 30187 28
24150 30186 30188 28
24151 30186 30189 28
24152 30186 30190 28
24153 30191 30192 28
24154 30191 30193 28
24155 30191 30194 28
24156 30191 30195 28
24157 30196 30197 28
24158 30196 30198 28
24159 30196 30199 28
24160 30196 30200 28
24161 30201 30202 28
24162 30201 30203 28
24163 30201 30204 28
24164 30201 30205 28
24165 30206 30207 28
24166 30206 30208 28
24167 30206 30209 28
24168 30206 30210 28
24169 30211 30212 28
24170 30211 30213 28
24171 30211 30214 28
24172 30211 30215 28
24173 30216 30217 28
24174 30216 30218 28
24175 30216 30219 28
24176 30216 30220 28
24177 30221 30222 28
24178 30221 30223 28
24179 30221 30224 28
24180 30221 30225 28
24181 30226 30227 28
24182 30226 30228 28
24183 30226 30229 28
24184 30226 30230 28
24185 30231 30232 28
24186 30231 30233 28
24187 30231 30234 28
24188 30231 30235 28
24189 30236 30237 28
24190 30236 30238 28
24191 30236 30239 28
24192 30236 30240 28
24193 30241 30242 28
24194 30241 30243 28
24195 30241 30244 28
24196 30241 30245 28
24197 30246 30247 28
24198 30246 30248 28
24199 30246 30249 28
24200 30246 30250 28
24201 30251 30252 28
24202 30251 30253 28
24203 30251 30254 28
24204 30251 30255 28
24205 30256 30257 28
24206 30256 30258 28
24207 30256 30259 28
24208 30256 30260 28
24209 30261 30262 28
24210 30261 30263 28
24211 30261 30264 28
24212 30261 30265 28
24213 30266 30267 28
24214 30266 30268 28
24215 30266 30269 28
24216 30266 30270 28
24217 30271 30272 28
24218 30271 30273 28
24219 30271 30274 28
24220 30271 30275 28
24221 30276 30277 28
24222 30276 30278 28
24223 30276 30279 28
24224 30276 30280 28
24225 30281 30282 28
24226 30281 30283 28
24227 30281 30284 28
24228 30281 30285 28
24229 30286 30287 28
24230 30286 30288 28
24231 30286 30289 28
24232 30286 30290 28
24233 30291 30292 28
24234 30291 30293 28
24235 30291 30294 28
24236 30291 30295 28
24237 30296 30297 28
24238 30296 30298 28
24239 30296 30299 28
24240 30296 30300 28
24241 30301 30302 28
24242 30301 30303 28
24243 30301 30304 28
24244 30301 30305 28
24245 30306 30307 28
24246 30306 30308 28
24247 30306 30309 28
24248 30306 30310 28
24249 30311 30312 28
24250 30311 30313 28
24251 30311 30314 28
24252 30311 30315 28
24253 30316 30317 28
24254 30316 30318 28
24255 30316 30319 28
24256 30316 30320 28
24257 30321 30322 28
24258 30321 30323 28
24259 30321 30324 28
24260 30321 30325 28
24261 30326 30327 28
24262 30326 30328 28
24263 30326 30329 28
24264 30326 30330 28
24265 30331 30332 28
24266 30331 30333 28
24267 30331 30334 28
24268 30331 30335 28
24269 30336 30337 28
24270 30336 30338 28
24271 30336 30339 28
24272 30336 30340 28
24273 30341 30342 28
24274 30341 30343 28
24275 30341 30344 28
24276 30341 30345 28
24277 30346 30347 28
24278 30346 30348 28
24279 30346 30349 28
24280 30346 30350 28
24281 30351 30352 28
24282 30351 30353 28
24283 30351 30354 28
24284 30351 30355 28
24285 30356 30357 28
24286 30356 30358 28
24287 30356 30359 28
24288 30356 30360 28
24289 30361 30362 28
24290 30361 30363 28
24291 30361 30364 28
24292 30361 30365 28
24293 30366 30367 28
24294 30366 30368 28
24295 30366 30369 28
24296 30366 30370 28
24297 30371 30372 28
24298 30371 30373 28
24299 30371 30374 28
24300 30371 30375 28
24301 30376 30377 28
24302 30376 30378 28
24303 30376 30379 28
24304 30376 30380 28
24305 30381 30382 28
24306 30381 30383 28
24307 30381 30384 28
24308 30381 30385 28
24309 30386 30387 28
24310 30386 30388 28
24311 30386 30389 28
24312 30386 30390 28
24313 30391 30392 28
24314 30391 30393 28
24315 30391 30394 28
24316 30391 30395 28
24317 30396 30397 28
24318 30396 30398 28
24319 30396 30399 28
24320 30396 30400 28
24321 30401 30402 28
24322 30401 30403 28
24323 30401 30404 28
24324 30401 30405 28
24325 30406 30407 28
24326 30406 30408 28
24327 30406 30409 28
24328 30406 30410 28
24329 30411 30412 28
24330 30411 30413 28
24331 30411 30414 28
24332 30411 30415 28
24333 30416 30417 28
24334 30416 30418 28
24335 30416 30419 28
24336 30416 30420 28
24337 30421 30422 28
24338 30421 30423 28
24339 30421 30424 28
24340 30421 30425 28
24341 30426 30427 28
24342 30426 30428 28
24343 30426 30429 28
24344 30426 30430 28
24345 30431 30432 28
24346 30431 30433 28
24347 30431 30434 28
24348 30431 30435 28
24349 30436 30437 28
24350 30436 30438 28
24351 30436 30439 28
24352 30436 30440 28
24353 30441 30442 28
24354 30441 30443 28
24355 30441 30444 28
24356 30441 30445 28
24357 30446 30447 28
24358 30446 30448 28
24359 30446 30449 28
24360 30446 30450 28
24361 30451 30452 28
24362 30451 30453 28
24363 30451 30454 28
24364 30451 30455 28
24365 30456 30457 28
24366 30456 30458 28
24367 30456 30459 28
24368 30456 30460 28
24369 30461 30462 28
24370 30461 30463 28
24371 30461 30464 28
24372 30461 30465 28
24373 30466 30467 28
24374 30466 30468 28
24375 30466 30469 28
24376 30466 30470 28
24377 30471 30472 28
24378 30471 30473 28
24379 30471 30474 28
24380 30471 30475 28
24381 30476 30477 28
24382 30476 30478 28
24383 30476 30479 28
24384 30476 30480 28
24385 30481 30482 28
24386 30481 30483 28
24387 30481 30484 28
24388 30481 30485 28
24389 30486 30487 28
24390 30486 30488 28
24391 30486 30489 28
24392 30486 30490 28
24393 30491 30492 28
24394 30491 30493 28
24395 30491 30494 28
24396 30491 30495 28
24397 30496 30497 28
24398 30496 30498 28
24399 30496 30499 28
24400 30496 30500 28
24401 30501 30502 28
24402 30501 30503 28
24403 30501 30504 28
24404 30501 30505 28
24405 30506 30507 28
24406 30506 30508 28
24407 30506 30509 28
24408 30506 30510 28
24409 30511 30512 28
24410 30511 30513 28
24411 30511 30514 28
24412 30511 30515 28
24413 30516 30517 28
24414 30516 30518 28
24415 30516 30519 28
24416 30516 30520 28
24417 30521 30522 28
24418 30521 30523 28
24419 30521 30524 28
24420 30521 30525 28
24421 30526 30527 28
24422 30526 30528 28
24423 30526 30529 28
24424 30526 30530 28
24425 30531 30532 28
24426 30531 30533 28
24427 30531 30534 28
24428 30531 30535 28
24429 30536 30537 28
24430 30536 30538 28
24431 30536 30539 28
24432 30536 30540 28
24433 30541 30542 28
24434 30541 30543 28
24435 30541 30544 28
24436 30541 30545 28
24437 30546 30547 28
24438 30546 30548 28
24439 30546 30549 28
24440 30546 30550 28
24441 30551 30552 28
24442 30551 30553 28
24443 30551 30554 28
24444 30551 30555 28
24445 30556 30557 28
24446 30556 30558 28
24447 30556 30559 28
24448 30556 30560 28
24449 30561 30562 28
24450 30561 30563 28
24451 30561 30564 28
24452 30561 30565 28
24453 30566 30567 28
24454 30566 30568 28
24455 30566 30569 28
24456 30566 30570 28
24457 30571 30572 28
24458 30571 30573 28
24459 30571 30574 28
24460 30571 30575 28
24461 30576 30577 28
24462 30576 30578 28
24463 30576 30579 28
24464 30576 30580 28
24465 30581 30582 28
24466 30581 30583 28
24467 30581 30584 28
24468 30581 30585 28
24469 30586 30587 28
24470 30586 30588 28
24471 30586 30589 28
24472 30586 30590 28
24473 30591 30592 28
24474 30591 30593 28
24475 30591 30594 28
24476 30591 30595 28
24477 30596 30597 28
24478 30596 30598 28
24479 30596 30599 28
24480 30596 30600 28
24481 30601 30602 28
24482 30601 30603 28
24483 30601 30604 28
24484 30601 30605 28
24485 30606 30607 28
24486 30606 30608 28
24487 30606 30609 28
24488 30606 30610 28
24489 30611 30612 28
24490 30611 30613 28
24491 30611 30614 28
24492 30611 30615 28
24493 30616 30617 28
24494 30616 30618 28
24495 30616 30619 28
24496 30616 30620 28
24497 30621 30622 28
24498 30621 30623 28
24499 30621 30624 28
24500 30621 30625 28
24501 30626 30627 28
24502 30626 30628 28
24503 30626 30629 28
24504 30626 30630 28
24505 30631 30632 28
24506 30631 30633 28
24507 30631 30634 28
24508 30631 30635 28
24509 30636 30637 28
24510 30636 30638 28
24511 30636 30639 28
24512 30636 30640 28
24513 30641 30642 28
24514 30641 30643 28
24515 30641 30644 28
24516 30641 30645 28
24517 30646 30647 28
24518 30646 30648 28
24519 30646 30649 28
24520 30646 30650 28
24521 30651 30652 28
24522 30651 30653 28
24523 30651 30654 28
24524 30651 30655 28
24525 30656 30657 28
24526 30656 30658 28
24527 30656 30659 28
24528 30656 30660 28
24529 30661 30662 28
24530 30661 30663 28
24531 30661 30664 28
24532 30661 30665 28
24533 30666 30667 28
24534 30666 30668 28
24535 30666 30669 28
24536 30666 30670 28
24537 30671 30672 28
24538 30671 30673 28
24539 30671 30674 28
24540 30671 30675 28
24541 30676 30677 28
24542 30676 30678 28
24543 30676 30679 28
24544 30676 30680 28
24545 30681 30682 28
24546 30681 30683 28
24547 30681 30684 28
24548 30681 30685 28
24549 30686 30687 28
24550 30686 30688 28
24551 30686 30689 28
24552 30686 30690 28
24553 30691 30692 28
24554 30691 30693 28
24555 30691 30694 28
24556 30691 30695 28
24557 30696 30697 28
24558 30696 30698 28
24559 30696 30699 28
24560 30696 30700 28
24561 30701 30702 28
24562 30701 30703 28
24563 30701 30704 28
24564 30701 30705 28
24565 30706 30707 28
24566 30706 30708 28
24567 30706 30709 28
24568 30706 30710 28
24569 30711 30712 28
24570 30711 30713 28
24571 30711 30714 28
24572 30711 30715 28
24573 30716 30717 28
24574 30716 30718 28
24575 30716 30719 28
24576 30716 30720 28
24577 30721 30722 28
24578 30721 30723 28
24579 30721 30724 28
24580 30721 30725 28
24581 30726 30727 28
24582 30726 30728 28
24583 30726 30729 28
24584 30726 30730 28
24585 30731 30732 28
24586 30731 30733 28
24587 30731 30734 28
24588 30731 30735 28
24589 30736 30737 28
24590 30736 30738 28
24591 30736 30739 28
24592 30736 30740 28
24593 30741 30742 28
24594 30741 30743 28
24595 30741 30744 28
24596 30741 30745 28
24597 30746 30747 28
24598 30746 30748 28
24599 30746 30749 28
24600 30746 30750 28
24601 30751 30752 28
24602 30751 30753 28
24603 30751 30754 28
24604 30751 30755 28
24605 30756 30757 28
24606 30756 30758 28
24607 30756 30759 28
24608 30756 30760 28
24609 30761 30762 28
24610 30761 30763 28
24611 30761 30764 28
24612 30761 30765 28
24613 30766 30767 28
24614 30766 30768 28
24615 30766 30769 28
24616 30766 30770 28
24617 30771 30772 28
24618 30771 30773 28
24619 30771 30774 28
24620 30771 30775 28
24621 30776 30777 28
24622 30776 30778 28
24623 30776 30779 28
24624 30776 30780 28
24625 30781 30782 28
24626 30781 30783 28
24627 30781 30784 28
24628 30781 30785 28
24629 30786 30787 28
24630 30786 30788 28
24631 30786 30789 28
24632 30786 30790 28
24633 30791 30792 28
24634 30791 30793 28
24635 30791 30794 28
24636 30791 30795 28
24637 30796 30797 28
24638 30796 30798 28
24639 30796 30799 28
24640 30796 30800 28
24641 30801 30802 28
24642 30801 30803 28
24643 30801 30804 28
24644 30801 30805 28
24645 30806 30807 28
24646 30806 30808 28
24647 30806 30809 28
24648 30806 30810 28
24649 30811 30812 28
24650 30811 30813 28
24651 30811 30814 28
24652 30811 30815 28
24653 30816 30817 28
24654 30816 30818 28
24655 30816 30819 28
24656 30816 30820 28
24657 30821 30822 28
24658 30821 30823 28
24659 30821 30824 28
24660 30821 30825 28
24661 30826 30827 28
24662 30826 30828 28
24663 30826 30829 28
24664 30826 30830 28
24665 30831 30832 28
24666 30831 30833 28
24667 30831 30834 28
24668 30831 30835 28
24669 30836 30837 28
24670 30836 30838 28
24671 30836 30839 28
24672 30836 30840 28
24673 30841 30842 28
24674 30841 30843 28
24675 30841 30844 28
24676 30841 30845 28
24677 30846 30847 28
24678 30846 30848 28
24679 30846 30849 28
24680 30846 30850 28
24681 30851 30852 28
24682 30851 30853 28
24683 30851 30854 28
24684 30851 30855 28
24685 30856 30857 28
24686 30856 30858 28
24687 30856 30859 28
24688 30856 30860 28
24689 30861 30862 28
24690 30861 30863 28
24691 30861 30864 28
24692 30861 30865 28
24693 30866 30867 28
24694 30866 30868 28
24695 30866 30869 28
24696 30866 30870 28
24697 30871 30872 28
24698 30871 30873 28
24699 30871 30874 28
24700 30871 30875 28
24701 30876 30877 28
24702 30876 30878 28
24703 30876 30879 28
24704 30876 30880 28
24705 30881 30882 28
24706 30881 30883 28
24707 30881 30884 28
24708 30881 30885 28
24709 30886 30887 28
24710 30886 30888 28
24711 30886 30889 28
24712 30886 30890 28
24713 30891 30892 28
24714 30891 30893 28
24715 30891 30894 28
24716 30891 30895 28
24717 30896 30897 28
24718 30896 30898 28
24719 30896 30899 28
24720 30896 30900 28
24721 30901 30902 28
24722 30901 30903 28
24723 30901 30904 28
24724 30901 30905 28
24725 30906 30907 28
24726 30906 30908 28
24727 30906 30909 28
24728 30906 30910 28
24729 30911 30912 28
24730 30911 30913 28
24731 30911 30914 28
24732 30911 30915 28
24733 30916 30917 28
24734 30916 30918 28
24735 30916 30919 28
24736 30916 30920 28
24737 30921 30922 28
24738 30921 30923 28
24739 30921 30924 28
24740 30921 30925 28
24741 30926 30927 28
24742 30926 30928 28
24743 30926 30929 28
24744 30926 30930 28
24745 30931 30932 28
24746 30931 30933 28
24747 30931 30934 28
24748 30931 30935 28
24749 30936 30937 28
24750 30936 30938 28
24751 30936 30939 28
24752 30936 30940 28
24753 30941 30942 28
24754 30941 30943 28
24755 30941 30944 28
24756 30941 30945 28
24757 30946 30947 28
24758 30946 30948 28
24759 30946 30949 28
24760 30946 30950 28
24761 30951 30952 28
24762 30951 30953 28
24763 30951 30954 28
24764 30951 30955 28
24765 30956 30957 28
24766 30956 30958 28
24767 30956 30959 28
24768 30956 30960 28
24769 30961 30962 28
24770 30961 30963 28
24771 30961 30964 28
24772 30961 30965 28
24773 30966 30967 28
24774 30966 30968 28
24775 30966 30969 28
24776 30966 30970 28
24777 30971 30972 28
24778 30971 30973 28
24779 30971 30974 28
24780 30971 30975 28
24781 30976 30977 28
24782 30976 30978 28
24783 30976 30979 28
24784 30976 30980 28
24785 30981 30982 28
24786 30981 30983 28
24787 30981 30984 28
24788 30981 30985 28
24789 30986 30987 28
24790 30986 30988 28
24791 30986 30989 28
24792 30986 30990 28
24793 30991 30992 28
24794 30991 30993 28
24795 30991 30994 28
24796 30991 30995 28
24797 30996 30997 28
24798 30996 30998 28
24799 30996 30999 28
24800 30996 31000 28
24801 31001 31002 28
24802 31001 31003 28
24803 31001 31004 28
24804 31001 31005 28
24805 31006 31007 28
24806 31006 31008 28
24807 31006 31009 28
24808 31006 31010 28
24809 31011 31012 28
24810 31011 31013 28
24811 31011 31014 28
24812 31011 31015 28
24813 31016 31017 28
24814 31016 31018 28
24815 31016 31019 28
24816 31016 31020 28
24817 31021 31022 28
24818 31021 31023 28
24819 31021 31024 28
24820 31021 31025 28
24821 31026 31027 28
24822 31026 31028 28
24823 31026 31029 28
24824 31026 31030 28
24825 31031 31032 28
24826 31031 31033 28
24827 31031 31034 28
24828 31031 31035 28
24829 31036 31037 28
24830 31036 31038 28
24831 31036 31039 28
24832 31036 31040 28
24833 31041 31042 28
24834 31041 31043 28
24835 31041 31044 28
24836 31041 31045 28
24837 31046 31047 28
24838 31046 31048 28
24839 31046 31049 28
24840 31046 31050 28
24841 31051 31052 28
24842 31051 31053 28
24843 31051 31054 28
24844 31051 31055 28
24845 31056 31057 28
24846 31056 31058 28
24847 31056 31059 28
24848 31056 31060 28
24849 31061 31062 28
24850 31061 31063 28
24851 31061 31064 28
24852 31061 31065 28
24853 31066 31067 28
24854 31066 31068 28
24855 31066 31069 28
24856 31066 31070 28
24857 31071 31072 28
24858 31071 31073 28
24859 31071 31074 28
24860 31071 31075 28
24861 31076 31077 28
24862 31076 31078 28
24863 31076 31079 28
24864 31076 31080 28
24865 31081 31082 28
24866 31081 31083 28
24867 31081 31084 28
24868 31081 31085 28
24869 31086 31087 28
24870 31086 31088 28
24871 31086 31089 28
24872 31086 31090 28
24873 31091 31092 28
24874 31091 31093 28
24875 31091 31094 28
24876 31091 31095 28
24877 31096 31097 28
24878 31096 31098 28
24879 31096 31099 28
24880 31096 31100 28
24881 31101 31102 28
24882 31101 31103 28
24883 31101 31104 28
24884 31101 31105 28
24885 31106 31107 28
24886 31106 31108 28
24887 31106 31109 28
24888 31106 31110 28
24889 31111 31112 28
24890 31111 31113 28
24891 31111 31114 28
24892 31111 31115 28
24893 31116 31117 28
24894 31116 31118 28
24895 31116 31119 28
24896 31116 31120 28
24897 31121 31122 28
24898 31121 31123 28
24899 31121 31124 28
24900 31121 31125 28
24901 31126 31127 28
24902 31126 31128 28
24903 31126 31129 28
24904 31126 31130 28
24905 31131 31132 28
24906 31131 31133 28
24907 31131 31134 28
24908 31131 31135 28
24909 31136 31137 28
24910 31136 31138 28
24911 31136 31139 28
24912 31136 31140 28
24913 31141 31142 28
24914 31141 31143 28
24915 31141 31144 28
24916 31141 31145 28
24917 31146 31147 28
24918 31146 31148 28
24919 31146 31149 28
24920 31146 31150 28
24921 31151 31152 28
24922 31151 31153 28
24923 31151 31154 28
24924 31151 31155 28
24925 31156 31157 28
24926 31156 31158 28
24927 31156 31159 28
24928 31156 31160 28
24929 31161 31162 28
24930 31161 31163 28
24931 31161 31164 28
24932 31161 31165 28
24933 31166 31167 28
24934 31166 31168 28
24935 31166 31169 28
24936 31166 31170 28
24937 31171 31172 28
24938 31171 31173 28
24939 31171 31174 28
24940 31171 31175 28
24941 31176 31177 28
24942 31176 31178 28
24943 31176 31179 28
24944 31176 31180 28
24945 31181 31182 28
24946 31181 31183 28
24947 31181 31184 28
24948 31181 31185 28
24949 31186 31187 28
24950 31186 31188 28
24951 31186 31189 28
24952 31186 31190 28
24953 31191 31192 28
24954 31191 31193 28
24955 31191 31194 28
24956 31191 31195 28
24957 31196 31197 28
24958 31196 31198 28
24959 31196 31199 28
24960 31196 31200 28
24961 31201 31202 28
24962 31201 31203 28
24963 31201 31204 28
24964 31201 31205 28
24965 31206 31207 28
24966 31206 31208 28
24967 31206 31209 28
24968 31206 31210 28
24969 31211 31212 28
24970 31211 31213 28
24971 31211 31214 28
24972 31211 31215 28
24973 31216 31217 28
24974 31216 31218 28
24975 31216 31219 28
24976 31216 31220 28
24977 31221 31222 28
24978 31221 31223 28
24979 31221 31224 28
24980 31221 31225 28
24981 31226 31227 28
24982 31226 31228 28
24983 31226 31229 28
24984 31226 31230 28
24985 31231 31232 28
24986 31231 31233 28
24987 31231 31234 28
24988 31231 31235 28
24989 31236 31237 28
24990 31236 31238 28
24991 31236 31239 28
24992 31236 31240 28
24993 31241 31242 28
24994 31241 31243 28
24995 31241 31244 28
24996 31241 31245 28
24997 31246 31247 28
24998 31246 31248 28
24999 31246 31249 28
25000 31246 31250 28
25001 31251 31252 28
25002 31251 31253 28
25003 31251 31254 28
25004 31251 31255 28
25005 31256 31257 28
25006 31256 31258 28
25007 31256 31259 28
25008 31256 31260 28
25009 31261 31262 28
25010 31261 31263 28
25011 31261 31264 28
25012 31261 31265 28
25013 31266 31267 28
25014 31266 31268 28
25015 31266 31269 28
25016 31266 31270 28
25017 31271 31272 28
25018 31271 31273 28
25019 31271 31274 28
25020 31271 31275 28
25021 31276 31277 28
25022 31276 31278 28
25023 31276 31279 28
25024 31276 31280 28
25025 31281 31282 28
25026 31281 31283 28
25027 31281 31284 28
25028 31281 31285 28
25029 31286 31287 28
25030 31286 31288 28
25031 31286 31289 28
25032 31286 31290 28
25033 31291 31292 28
25034 31291 31293 28
25035 31291 31294 28
25036 31291 31295 28
25037 31296 31297 28
25038 31296 31298 28
25039 31296 31299 28
25040 31296 31300 28
25041 31301 31302 28
25042 31301 31303 28
25043 31301 31304 28
25044 31301 31305 28
25045 31306 31307 28
25046 31306 31308 28
25047 31306 31309 28
25048 31306 31310 28
25049 31311 31312 28
25050 31311 31313 28
25051 31311 31314 28
25052 31311 31315 28
25053 31316 31317 28
25054 31316 31318 28
25055 31316 31319 28
25056 31316 31320 28
25057 31321 31322 28
25058 31321 31323 28
25059 31321 31324 28
25060 31321 31325 28
25061 31326 31327 28
25062 31326 31328 28
25063 31326 31329 28
25064 31326 31330 28
25065 31331 31332 28
25066 31331 31333 28
25067 31331 31334 28
25068 31331 31335 28
25069 31336 31337 28
25070 31336 31338 28
25071 31336 31339 28
25072 31336 31340 28
25073 31341 31342 28
25074 31341 31343 28
25075 31341 31344 28
25076 31341 31345 28
25077 31346 31347 28
25078 31346 31348 28
25079 31346 31349 28
25080 31346 31350 28
25081 31351 31352 28
25082 31351 31353 28
25083 31351 31354 28
25084 31351 31355 28
25085 31356 31357 28
25086 31356 31358 28
25087 31356 31359 28
25088 31356 31360 28
25089 31361 31362 28
25090 31361 31363 28
25091 31361 31364 28
25092 31361 31365 28
25093 31366 31367 28
25094 31366 31368 28
25095 31366 31369 28
25096 31366 31370 28
25097 31371 31372 28
25098 31371 31373 28
25099 31371 31374 28
25100 31371 31375 28
25101 31376 31377 28
25102 31376 31378 28
25103 31376 31379 28
25104 31376 31380 28
25105 31381 31382 28
25106 31381 31383 28
25107 31381 31384 28
25108 31381 31385 28
25109 31386 31387 28
25110 31386 31388 28
25111 31386 31389 28
25112 31386 31390 28
25113 31391 31392 28
25114 31391 31393 28
25115 31391 31394 28
25116 31391 31395 28
25117 31396 31397 28
25118 31396 31398 28
25119 31396 31399 28
25120 31396 31400 28
25121 31401 31402 28
25122 31401 31403 28
25123 31401 31404 28
25124 31401 31405 28
25125 31406 31407 28
25126 31406 31408 28
25127 31406 31409 28
25128 31406 31410 28
25129 31411 31412 28
25130 31411 31413 28
25131 31411 31414 28
25132 31411 31415 28
25133 31416 31417 28
25134 31416 31418 28
25135 31416 31419 28
25136 31416 31420 28
25137 31421 31422 28
25138 31421 31423 28
25139 31421 31424 28
25140 31421 31425 28
25141 31426 31427 28
25142 31426 31428 28
25143 31426 31429 28
25144 31426 31430 28
25145 31431 31432 28
25146 31431 31433 28
25147 31431 31434 28
25148 31431 31435 28
25149 31436 31437 28
25150 31436 31438 28
25151 31436 31439 28
25152 31436 31440 28
25153 31441 31442 28
25154 31441 31443 28
25155 31441 31444 28
25156 31441 31445 28
25157 31446 31447 28
25158 31446 31448 28
25159 31446 31449 28
25160 31446 31450 28
25161 31451 31452 28
25162 31451 31453 28
25163 31451 31454 28
25164 31451 31455 28
25165 31456 31457 28
25166 31456 31458 28
25167 31456 31459 28
25168 31456 31460 28
25169 31461 31462 28
25170 31461 31463 28
25171 31461 31464 28
25172 31461 31465 28
25173 31466 31467 28
25174 31466 31468 28
25175 31466 31469 28
25176 31466 31470 28
25177 31471 31472 28
25178 31471 31473 28
25179 31471 31474 28
25180 31471 31475 28
25181 31476 31477 28
25182 31476 31478 28
25183 31476 31479 28
25184 31476 31480 28
25185 31481 31482 28
25186 31481 31483 28
25187 31481 31484 28
25188 31481 31485 28
25189 31486 31487 28
25190 31486 31488 28
25191 31486 31489 28
25192 31486 31490 28
25193 31491 31492 28
25194 31491 31493 28
25195 31491 31494 28
25196 31491 31495 28
25197 31496 31497 28
25198 31496 31498 28
25199 31496 31499 28
25200 31496 31500 28
25201 31501 31502 28
25202 31501 31503 28
25203 31501 31504 28
25204 31501 31505 28
25205 31506 31507 28
25206 31506 31508 28
25207 31506 31509 28
25208 31506 31510 28
25209 31511 31512 28
25210 31511 31513 28
25211 31511 31514 28
25212 31511 31515 28
25213 31516 31517 28
25214 31516 31518 28
25215 31516 31519 28
25216 31516 31520 28
25217 31521 31522 28
25218 31521 31523 28
25219 31521 31524 28
25220 31521 31525 28
25221 31526 31527 28
25222 31526 31528 28
25223 31526 31529 28
25224 31526 31530 28
25225 31531 31532 28
25226 31531 31533 28
25227 31531 31534 28
25228 31531 31535 28
25229 31536 31537 28
25230 31536 31538 28
25231 31536 31539 28
25232 31536 31540 28
25233 31541 31542 28
25234 31541 31543 28
25235 31541 31544 28
25236 31541 31545 28
25237 31546 31547 28
25238 31546 31548 28
25239 31546 31549 28
25240 31546 31550 28
25241 31551 31552 28
25242 31551 31553 28
25243 31551 31554 28
25244 31551 31555 28
25245 31556 31557 28
25246 31556 31558 28
25247 31556 31559 28
25248 31556 31560 28
25249 31561 31562 28
25250 31561 31563 28
25251 31561 31564 28
25252 31561 31565 28
25253 31566 31567 28
25254 31566 31568 28
25255 31566 31569 28
25256 31566 31570 28
25257 31571 31572 28
25258 31571 31573 28
25259 31571 31574 28
25260 31571 31575 28
25261 31576 31577 28
25262 31576 31578 28
25263 31576 31579 28
25264 31576 31580 28
25265 31581 31582 28
25266 31581 31583 28
25267 31581 31584 28
25268 31581 31585 28
25269 31586 31587 28
25270 31586 31588 28
25271 31586 31589 28
25272 31586 31590 28
25273 31591 31592 28
25274 31591 31593 28
25275 31591 31594 28
25276 31591 31595 28
25277 31596 31597 28
25278 31596 31598 28
25279 31596 31599 28
25280 31596 31600 28
25281 31601 31602 28
25282 31601 31603 28
25283 31601 31604 28
25284 31601 31605 28
25285 31606 31607 28
25286 31606 31608 28
25287 31606 31609 28
25288 31606 31610 28
25289 31611 31612 28
25290 31611 31613 28
25291 31611 31614 28
25292 31611 31615 28
25293 31616 31617 28
25294 31616 31618 28
25295 31616 31619 28
25296 31616 31620 28
25297 31621 31622 28
25298 31621 31623 28
25299 31621 31624 28
25300 31621 31625 28
25301 31626 31627 28
25302 31626 31628 28
25303 31626 31629 28
25304 31626 31630 28
25305 31631 31632 28
25306 31631 31633 28
25307 31631 31634 28
25308 31631 31635 28
25309 31636 31637 28
25310 31636 31638 28
25311 31636 31639 28
25312 31636 31640 28
25313 31641 31642 28
25314 31641 31643 28
25315 31641 31644 28
25316 31641 31645 28
25317 31646 31647 28
25318 31646 31648 28
25319 31646 31649 28
25320 31646 31650 28
25321 31651 31652 28
25322 31651 31653 28
25323 31651 31654 28
25324 31651 31655 28
25325 31656 31657 28
25326 31656 31658 28
25327 31656 31659 28
25328 31656 31660 28
25329 31661 31662 28
25330 31661 31663 28
25331 31661 31664 28
25332 31661 31665 28
25333 31666 31667 28
25334 31666 31668 28
25335 31666 31669 28
25336 31666 31670 28
25337 31671 31672 28
25338 31671 31673 28
25339 31671 31674 28
25340 31671 31675 28
25341 31676 31677 28
25342 31676 31678 28
25343 31676 31679 28
25344 31676 31680 28
25345 31681 31682 28
25346 31681 31683 28
25347 31681 31684 28
25348 31681 31685 28
25349 31686 31687 28
25350 31686 31688 28
25351 31686 31689 28
25352 31686 31690 28
25353 31691 31692 28
25354 31691 31693 28
25355 31691 31694 28
25356 31691 31695 28
25357 31696 31697 28
25358 31696 31698 28
25359 31696 31699 28
25360 31696 31700 28
25361 31701 31702 28
25362 31701 31703 28
25363 31701 31704 28
25364 31701 31705 28
25365 31706 31707 28
25366 31706 31708 28
25367 31706 31709 28
25368 31706 31710 28
25369 31711 31712 28
25370 31711 31713 28
25371 31711 31714 28
25372 31711 31715 28
25373 31716 31717 28
25374 31716 31718 28
25375 31716 31719 28
25376 31716 31720 28
25377 31721 31722 28
25378 31721 31723 28
25379 31721 31724 28
25380 31721 31725 28
25381 31726 31727 28
25382 31726 31728 28
25383 31726 31729 28
25384 31726 31730 28
25385 31731 31732 28
25386 31731 31733 28
25387 31731 31734 28
25388 31731 31735 28
25389 31736 31737 28
25390 31736 31738 28
25391 31736 31739 28
25392 31736 31740 28
25393 31741 31742 28
25394 31741 31743 28
25395 31741 31744 28
25396 31741 31745 28
25397 31746 31747 28
25398 31746 31748 28
25399 31746 31749 28
25400 31746 31750 28
25401 31751 31752 28
25402 31751 31753 28
25403 31751 31754 28
25404 31751 31755 28
25405 31756 31757 28
25406 31756 31758 28
25407 31756 31759 28
25408 31756 31760 28
25409 31761 31762 28
25410 31761 31763 28
25411 31761 31764 28
25412 31761 31765 28
25413 31766 31767 28
25414 31766 31768 28
25415 31766 31769 28
25416 31766 31770 28
25417 31771 31772 28
25418 31771 31773 28
25419 31771 31774 28
25420 31771 31775 28
25421 31776 31777 28
25422 31776 31778 28
25423 31776 31779 28
25424 31776 31780 28
25425 31781 31782 28
25426 31781 31783 28
25427 31781 31784 28
25428 31781 31785 28
25429 31786 31787 28
25430 31786 31788 28
25431 31786 31789 28
25432 31786 31790 28
25433 31791 31792 28
25434 31791 31793 28
25435 31791 31794 28
25436 31791 31795 28
25437 31796 31797 28
25438 31796 31798 28
25439 31796 31799 28
25440 31796 31800 28
25441 31801 31802 28
25442 31801 31803 28
25443 31801 31804 28
25444 31801 31805 28
25445 31806 31807 28
25446 31806 31808 28
25447 31806 31809 28
25448 31806 31810 28
25449 31811 31812 28
25450 31811 31813 28
25451 31811 31814 28
25452 31811 31815 28
25453 31816 31817 28
25454 31816 31818 28
25455 31816 31819 28
25456 31816 31820 28
25457 31821 31822 28
25458 31821 31823 28
25459 31821 31824 28
25460 31821 31825 28
25461 31826 31827 28
25462 31826 31828 28
25463 31826 31829 28
25464 31826 31830 28
25465 31831 31832 28
25466 31831 31833 28
25467 31831 31834 28
25468 31831 31835 28
25469 31836 31837 28
25470 31836 31838 28
25471 31836 31839 28
25472 31836 31840 28
25473 31841 31842 28
25474 31841 31843 28
25475 31841 31844 28
25476 31841 31845 28
25477 31846 31847 28
25478 31846 31848 28
25479 31846 31849 28
25480 31846 31850 28
25481 31851 31852 28
25482 31851 31853 28
25483 31851 31854 28
25484 31851 31855 28
25485 31856 31857 28
25486 31856 31858 28
25487 31856 31859 28
25488 31856 31860 28
25489 31861 31862 28
25490 31861 31863 28
25491 31861 31864 28
25492 31861 31865 28
25493 31866 31867 28
25494 31866 31868 28
25495 31866 31869 28
25496 31866 31870 28
25497 31871 31872 28
25498 31871 31873 28
25499 31871 31874 28
25500 31871 31875 28
25501 31876 31877 28
25502 31876 31878 28
25503 31876 31879 28
25504 31876 31880 28
25505 31881 31882 28
25506 31881 31883 28
25507 31881 31884 28
25508 31881 31885 28
25509 31886 31887 28
25510 31886 31888 28
25511 31886 31889 28
25512 31886 31890 28
25513 31891 31892 28
25514 31891 31893 28
25515 31891 31894 28
25516 31891 31895 28
25517 31896 31897 28
25518 31896 31898 28
25519 31896 31899 28
25520 31896 31900 28
25521 31901 31902 28
25522 31901 31903 28
25523 31901 31904 28
25524 31901 31905 28
25525 31906 31907 28
25526 31906 31908 28
25527 31906 31909 28
25528 31906 31910 28
25529 31911 31912 28
25530 31911 31913 28
25531 31911 31914 28
25532 31911 31915 28
25533 31916 31917 28
25534 31916 31918 28
25535 31916 31919 28
25536 31916 31920 28
25537 31921 31922 28
25538 31921 31923 28
25539 31921 31924 28
25540 31921 31925 28
25541 31926 31927 28
25542 31926 31928 28
25543 31926 31929 28
25544 31926 31930 28
25545 31931 31932 28
25546 31931 31933 28
25547 31931 31934 28
25548 31931 31935 28
25549 31936 31937 28
25550 31936 31938 28
25551 31936 31939 28
25552 31936 31940 28
25553 31941 31942 28
25554 31941 31943 28
25555 31941 31944 28
25556 31941 31945 28
25557 31946 31947 28
25558 31946 31948 28
25559 31946 31949 28
25560 31946 31950 28
25561 31951 31952 28
25562 31951 31953 28
25563 31951 31954 28
25564 31951 31955 28
25565 31956 31957 28
25566 31956 31958 28
25567 31956 31959 28
25568 31956 31960 28
25569 31961 31962 28
25570 31961 31963 28
25571 31961 31964 28
25572 31961 31965 28
25573 31966 31967 28
25574 31966 31968 28
25575 31966 31969 28
25576 31966 31970 28
25577 31971 31972 28
25578 31971 31973 28
25579 31971 31974 28
25580 31971 31975 28
25581 31976 31977 28
25582 31976 31978 28
25583 31976 31979 28
25584 31976 31980 28
25585 31981 31982 28
25586 31981 31983 28
25587 31981 31984 28
25588 31981 31985 28
25589 31986 31987 28
25590 31986 31988 28
25591 31986 31989 28
25592 31986 31990 28
25593 31991 31992 28
25594 31991 31993 28
25595 31991 31994 28
25596 31991 31995 28
25597 31996 31997 28
25598 31996 31998 28
25599 31996 31999 28
25600 31996 32000 28
25601 32001 32002 28
25602 32001 32003 28
25603 32001 32004 28
25604 32001 32005 28
25605 32006 32007 28
25606 32006 32008 28
25607 32006 32009 28
25608 32006 32010 28
25609 32011 32012 28
25610 32011 32013 28
25611 32011 32014 28
25612 32011 32015 28
25613 32016 32017 28
25614 32016 32018 28
25615 32016 32019 28
25616 32016 32020 28
25617 32021 32022 28
25618 32021 32023 28
25619 32021 32024 28
25620 32021 32025 28
25621 32026 32027 28
25622 32026 32028 28
25623 32026 32029 28
25624 32026 32030 28
25625 32031 32032 28
25626 32031 32033 28
25627 32031 32034 28
25628 32031 32035 28
25629 32036 32037 28
25630 32036 32038 28
25631 32036 32039 28
25632 32036 32040 28
25633 32041 32042 28
25634 32041 32043 28
25635 32041 32044 28
25636 32041 32045 28
25637 32046 32047 28
25638 32046 32048 28
25639 32046 32049 28
25640 32046 32050 28
25641 32051 32052 28
25642 32051 32053 28
25643 32051 32054 28
25644 32051 32055 28
25645 32056 32057 28
25646 32056 32058 28
25647 32056 32059 28
25648 32056 32060 28
25649 32061 32062 28
25650 32061 32063 28
25651 32061 32064 28
25652 32061 32065 28
25653 32066 32067 28
25654 32066 32068 28
25655 32066 32069 28
25656 32066 32070 28
25657 32071 32072 28
25658 32071 32073 28
25659 32071 32074 28
25660 32071 32075 28
25661 32076 32077 28
25662 32076 32078 28
25663 32076 32079 28
25664 32076 32080 28
25665 32081 32082 28
25666 32081 32083 28
25667 32081 32084 28
25668 32081 32085 28
25669 32086 32087 28
25670 32086 32088 28
25671 32086 32089 28
25672 32086 32090 28
25673 32091 32092 28
25674 32091 32093 28
25675 32091 32094 28
25676 32091 32095 28
25677 32096 32097 28
25678 32096 32098 28
25679 32096 32099 28
25680 32096 32100 28
25681 32101 32102 28
25682 32101 32103 28
25683 32101 32104 28
25684 32101 32105 28
25685 32106 32107 28
25686 32106 32108 28
25687 32106 32109 28
25688 32106 32110 28
25689 32111 32112 28
25690 32111 32113 28
25691 32111 32114 28
25692 32111 32115 28
25693 32116 32117 28
25694 32116 32118 28
25695 32116 32119 28
25696 32116 32120 28
25697 32121 32122 28
25698 32121 32123 28
25699 32121 32124 28
25700 32121 32125 28
25701 32126 32127 28
25702 32126 32128 28
25703 32126 32129 28
25704 32126 32130 28
25705 32131 32132 28
25706 32131 32133 28
25707 32131 32134 28
25708 32131 32135 28
25709 32136 32137 28
25710 32136 32138 28
25711 32136 32139 28
25712 32136 32140 28
25713 32141 32142 28
25714 32141 32143 28
25715 32141 32144 28
25716 32141 32145 28
25717 32146 32147 28
25718 32146 32148 28
25719 32146 32149 28
25720 32146 32150 28
25721 32151 32152 28
25722 32151 32153 28
25723 32151 32154 28
25724 32151 32155 28
25725 32156 32157 28
25726 32156 32158 28
25727 32156 32159 28
25728 32156 32160 28
25729 32161 32162 28
25730 32161 32163 28
25731 32161 32164 28
25732 32161 32165 28
25733 32166 32167 28
25734 32166 32168 28
25735 32166 32169 28
25736 32166 32170 28
25737 32171 32172 28
25738 32171 32173 28
25739 32171 32174 28
25740 32171 32175 28
25741 32176 32177 28
25742 32176 32178 28
25743 32176 32179 28
25744 32176 32180 28
25745 32181 32182 28
25746 32181 32183 28
25747 32181 32184 28
25748 32181 32185 28
25749 32186 32187 28
25750 32186 32188 28
25751 32186 32189 28
25752 32186 32190 28
25753 32191 32192 28
25754 32191 32193 28
25755 32191 32194 28
25756 32191 32195 28
25757 32196 32197 28
25758 32196 32198 28
25759 32196 32199 28
25760 32196 32200 28
25761 32201 32202 28
25762 32201 32203 28
25763 32201 32204 28
25764 32201 32205 28
25765 32206 32207 28
25766 32206 32208 28
25767 32206 32209 28
25768 32206 32210 28
25769 32211 32212 28
25770 32211 32213 28
25771 32211 32214 28
25772 32211 32215 28
25773 32216 32217 28
25774 32216 32218 28
25775 32216 32219 28
25776 32216 32220 28
25777 32221 32222 28
25778 32221 32223 28
25779 32221 32224 28
25780 32221 32225 28
25781 32226 32227 28
25782 32226 32228 28
25783 32226 32229 28
25784 32226 32230 28
25785 32231 32232 28
25786 32231 32233 28
25787 32231 32234 28
25788 32231 32235 28
25789 32236 32237 28
25790 32236 32238 28
25791 32236 32239 28
25792 32236 32240 28
25793 32241 32242 28
25794 32241 32243 28
25795 32241 32244 28
25796 32241 32245 28
25797 32246 32247 28
25798 32246 32248 28
25799 32246 32249 28
25800 32246 32250 28
25801 32251 32252 28
25802 32251 32253 28
25803 32251 32254 28
25804 32251 32255 28
25805 32256 32257 28
25806 32256 32258 28
25807 32256 32259 28
25808 32256 32260 28
25809 32261 32262 28
25810 32261 32263 28
25811 32261 32264 28
25812 32261 32265 28
25813 32266 32267 28
25814 32266 32268 28
25815 32266 32269 28
25816 32266 32270 28
25817 32271 32272 28
25818 32271 32273 28
25819 32271 32274 28
25820 32271 32275 28
25821 32276 32277 28
25822 32276 32278 28
25823 32276 32279 28
25824 32276 32280 28
25825 32281 32282 28
25826 32281 32283 28
25827 32281 32284 28
25828 32281 32285 28
25829 32286 32287 28
25830 32286 32288 28
25831 32286 32289 28
25832 32286 32290 28
25833 32291 32292 28
25834 32291 32293 28
25835 32291 32294 28
25836 32291 32295 28
25837 32296 32297 28
25838 32296 32298 28
25839 32296 32299 28
25840 32296 32300 28
25841 32301 32302 28
25842 32301 32303 28
25843 32301 32304 28
25844 32301 32305 28
25845 32306 32307 28
25846 32306 32308 28
25847 32306 32309 28
25848 32306 32310 28
25849 32311 32312 28
25850 32311 32313 28
25851 32311 32314 28
25852 32311 32315 28
25853 32316 32317 28
25854 32316 32318 28
25855 32316 32319 28
25856 32316 32320 28
25857 32321 32322 28
25858 32321 32323 28
25859 32321 32324 28
25860 32321 32325 28
25861 32326 32327 28
25862 32326 32328 28
25863 32326 32329 28
25864 32326 32330 28
25865 32331 32332 28
25866 32331 32333 28
25867 32331 32334 28
25868 32331 32335 28
25869 32336 32337 28
25870 32336 32338 28
25871 32336 32339 28
25872 32336 32340 28
25873 32341 32342 28
25874 32341 32343 28
25875 32341 32344 28
25876 32341 32345 28
25877 32346 32347 28
25878 32346 32348 28
25879 32346 32349 28
25880 32346 32350 28
25881 32351 32352 28
25882 32351 32353 28
25883 32351 32354 28
25884 32351 32355 28
25885 32356 32357 28
25886 32356 32358 28
25887 32356 32359 28
25888 32356 32360 28
25889 32361 32362 28
25890 32361 32363 28
25891 32361 32364 28
25892 32361 32365 28
25893 32366 32367 28
25894 32366 32368 28
25895 32366 32369 28
25896 32366 32370 28
25897 32371 32372 28
25898 32371 32373 28
25899 32371 32374 28
25900 32371 32375 28
25901 32376 32377 28
25902 32376 32378 28
25903 32376 32379 28
25904 32376 32380 28
25905 32381 32382 28
25906 32381 32383 28
25907 32381 32384 28
25908 32381 32385 28
25909 32386 32387 28
25910 32386 32388 28
25911 32386 32389 28
25912 32386 32390 28
25913 32391 32392 28
25914 32391 32393 28
25915 32391 32394 28
25916 32391 32395 28
25917 32396 32397 28
25918 32396 32398 28
25919 32396 32399 28
25920 32396 32400 28
25921 32401 32402 28
25922 32401 32403 28
25923 32401 32404 28
25924 32401 32405 28
25925 32406 32407 28
25926 32406 32408 28
25927 32406 32409 28
25928 32406 32410 28
25929 32411 32412 28
25930 32411 32413 28
25931 32411 32414 28
25932 32411 32415 28
25933 32416 32417 28
25934 32416 32418 28
25935 32416 32419 28
25936 32416 32420 28
25937 32421 32422 28
25938 32421 32423 28
25939 32421 32424 28
25940 32421 32425 28
25941 32426 32427 28
25942 32426 32428 28
25943 32426 32429 28
25944 32426 32430 28
25945 32431 32432 28
25946 32431 32433 28
25947 32431 32434 28
25948 32431 32435 28
25949 32436 32437 28
25950 32436 32438 28
25951 32436 32439 28
25952 32436 32440 28
25953 32441 32442 28
25954 32441 32443 28
25955 32441 32444 28
25956 32441 32445 28
25957 32446 32447 28
25958 32446 32448 28
25959 32446 32449 28
25960 32446 32450 28
25961 32451 32452 28
25962 32451 32453 28
25963 32451 32454 28
25964 32451 32455 28
25965 32456 32457 28
25966 32456 32458 28
25967 32456 32459 28
25968 32456 32460 28
25969 32461 32462 28
25970 32461 32463 28
25971 32461 32464 28
25972 32461 32465 28
25973 32466 32467 28
25974 32466 32468 28
25975 32466 32469 28
25976 32466 32470 28
25977 32471 32472 28
25978 32471 32473 28
25979 32471 32474 28
25980 32471 32475 28
25981 32476 32477 28
25982 32476 32478 28
25983 32476 32479 28
25984 32476 32480 28
25985 32481 32482 28
25986 32481 32483 28
25987 32481 32484 28
25988 32481 32485 28
25989 32486 32487 28
25990 32486 32488 28
25991 32486 32489 28
25992 32486 32490 28
25993 32491 32492 28
25994 32491 32493 28
25995 32491 32494 28
25996 32491 32495 28
25997 32496 32497 28
25998 32496 32498 28
25999 32496 32499 28
26000 32496 32500 28
26001 32501 32502 28
26002 32501 32503 28
26003 32501 32504 28
26004 32501 32505 28
26005 32506 32507 28
26006 32506 32508 28
26007 32506 32509 28
26008 32506 32510 28
26009 32511 32512 28
26010 32511 32513 28
26011 32511 32514 28
26012 32511 32515 28
26013 32516 32517 28
26014 32516 32518 28
26015 32516 32519 28
26016 32516 32520 28
26017 32521 32522 28
26018 32521 32523 28
26019 32521 32524 28
26020 32521 32525 28
26021 32526 32527 28
26022 32526 32528 28
26023 32526 32529 28
26024 32526 32530 28
26025 32531 32532 28
26026 32531 32533 28
26027 32531 32534 28
26028 32531 32535 28
26029 32536 32537 28
26030 32536 32538 28
26031 32536 32539 28
26032 32536 32540 28
26033 32541 32542 28
26034 32541 32543 28
26035 32541 32544 28
26036 32541 32545 28
26037 32546 32547 28
26038 32546 32548 28
26039 32546 32549 28
26040 32546 32550 28
26041 32551 32552 28
26042 32551 32553 28
26043 32551 32554 28
26044 32551 32555 28
26045 32556 32557 28
26046 32556 32558 28
26047 32556 32559 28
26048 32556 32560 28
26049 32561 32562 28
26050 32561 32563 28
26051 32561 32564 28
26052 32561 32565 28
26053 32566 32567 28
26054 32566 32568 28
26055 32566 32569 28
26056 32566 32570 28
26057 32571 32572 28
26058 32571 32573 28
26059 32571 32574 28
26060 32571 32575 28
26061 32576 32577 28
26062 32576 32578 28
26063 32576 32579 28
26064 32576 32580 28
26065 32581 32582 28
26066 32581 32583 28
26067 32581 32584 28
26068 32581 32585 28
26069 32586 32587 28
26070 32586 32588 28
26071 32586 32589 28
26072 32586 32590 28
26073 32591 32592 28
26074 32591 32593 28
26075 32591 32594 28
26076 32591 32595 28
26077 32596 32597 28
26078 32596 32598 28
26079 32596 32599 28
26080 32596 32600 28
26081 32601 32602 28
26082 32601 32603 28
26083 32601 32604 28
26084 32601 32605 28
26085 32606 32607 28
26086 32606 32608 28
26087 32606 32609 28
26088 32606 32610 28
26089 32611 32612 28
26090 32611 32613 28
26091 32611 32614 28
26092 32611 32615 28
26093 32616 32617 28
26094 32616 32618 28
26095 32616 32619 28
26096 32616 32620 28
26097 32621 32622 28
26098 32621 32623 28
26099 32621 32624 28
26100 32621 32625 28
26101 32626 32627 28
26102 32626 32628 28
26103 32626 32629 28
26104 32626 32630 28
26105 32631 32632 28
26106 32631 32633 28
26107 32631 32634 28
26108 32631 32635 28
26109 32636 32637 28
26110 32636 32638 28
26111 32636 32639 28
26112 32636 32640 28
26113 32641 32642 28
26114 32641 32643 28
26115 32641 32644 28
26116 32641 32645 28
26117 32646 32647 28
26118 32646 32648 28
26119 32646 32649 28
26120 32646 32650 28
26121 32651 32652 28
26122 32651 32653 28
26123 32651 32654 28
26124 32651 32655 28
26125 32656 32657 28
26126 32656 32658 28
26127 32656 32659 28
26128 32656 32660 28
26129 32661 32662 28
26130 32661 32663 28
26131 32661 32664 28
26132 32661 32665 28
26133 32666 32667 28
26134 32666 32668 28
26135 32666 32669 28
26136 32666 32670 28
26137 32671 32672 28
26138 32671 32673 28
26139 32671 32674 28
26140 32671 32675 28
26141 32676 32677 28
26142 32676 32678 28
26143 32676 32679 28
26144 32676 32680 28
26145 32681 32682 28
26146 32681 32683 28
26147 32681 32684 28
26148 32681 32685 28
26149 32686 32687 28
26150 32686 32688 28
26151 32686 32689 28
26152 32686 32690 28
26153 32691 32692 28
26154 32691 32693 28
26155 32691 32694 28
26156 32691 32695 28
26157 32696 32697 28
26158 32696 32698 28
26159 32696 32699 28
26160 32696 32700 28
26161 32701 32702 28
26162 32701 32703 28
26163 32701 32704 28
26164 32701 32705 28
26165 32706 32707 28
26166 32706 32708 28
26167 32706 32709 28
26168 32706 32710 28
26169 32711 32712 28
26170 32711 32713 28
26171 32711 32714 28
26172 32711 32715 28
26173 32716 32717 28
26174 32716 32718 28
26175 32716 32719 28
26176 32716 32720 28
26177 32721 32722 28
26178 32721 32723 28
26179 32721 32724 28
26180 32721 32725 28
26181 32726 32727 28
26182 32726 32728 28
26183 32726 32729 28
26184 32726 32730 28
26185 32731 32732 28
26186 32731 32733 28
26187 32731 32734 28
26188 32731 32735 28
26189 32736 32737 28
26190 32736 32738 28
26191 32736 32739 28
26192 32736 32740 28
26193 32741 32742 28
26194 32741 32743 28
26195 32741 32744 28
26196 32741 32745 28
26197 32746 32747 28
26198 32746 32748 28
26199 32746 32749 28
26200 32746 32750 28
26201 32751 32752 28
26202 32751 32753 28
26203 32751 32754 28
26204 32751 32755 28
26205 32756 32757 28
26206 32756 32758 28
26207 32756 32759 28
26208 32756 32760 28
26209 32761 32762 28
26210 32761 32763 28
26211 32761 32764 28
26212 32761 32765 28
26213 32766 32767 28
26214 32766 32768 28
26215 32766 32769 28
26216 32766 32770 28
26217 32771 32772 28
26218 32771 32773 28
26219 32771 32774 28
26220 32771 32775 28
26221 32776 32777 28
26222 32776 32778 28
26223 32776 32779 28
26224 32776 32780 28
26225 32781 32782 28
26226 32781 32783 28
26227 32781 32784 28
26228 32781 32785 28
26229 32786 32787 28
26230 32786 32788 28
26231 32786 32789 28
26232 32786 32790 28
26233 32791 32792 28
26234 32791 32793 28
26235 32791 32794 28
26236 32791 32795 28
26237 32796 32797 28
26238 32796 32798 28
26239 32796 32799 28
26240 32796 32800 28
26241 32801 32802 28
26242 32801 32803 28
26243 32801 32804 28
26244 32801 32805 28
26245 32806 32807 28
26246 32806 32808 28
26247 32806 32809 28
26248 32806 32810 28
26249 32811 32812 28
26250 32811 32813 28
26251 32811 32814 28
26252 32811 32815 28
26253 32816 32817 28
26254 32816 32818 28
26255 32816 32819 28
26256 32816 32820 28
26257 32821 32822 28
26258 32821 32823 28
26259 32821 32824 28
26260 32821 32825 28
26261 32826 32827 28
26262 32826 32828 28
26263 32826 32829 28
26264 32826 32830 28
26265 32831 32832 28
26266 32831 32833 28
26267 32831 32834 28
26268 32831 32835 28
26269 32836 32837 28
26270 32836 32838 28
26271 32836 32839 28
26272 32836 32840 28
26273 32841 32842 28
26274 32841 32843 28
26275 32841 32844 28
26276 32841 32845 28
26277 32846 32847 28
26278 32846 32848 28
26279 32846 32849 28
26280 32846 32850 28
26281 32851 32852 28
26282 32851 32853 28
26283 32851 32854 28
26284 32851 32855 28
26285 32856 32857 28
26286 32856 32858 28
26287 32856 32859 28
26288 32856 32860 28
26289 32861 32862 28
26290 32861 32863 28
26291 32861 32864 28
26292 32861 32865 28
26293 32866 32867 28
26294 32866 32868 28
26295 32866 32869 28
26296 32866 32870 28
26297 32871 32872 28
26298 32871 32873 28
26299 32871 32874 28
26300 32871 32875 28
26301 32876 32877 28
26302 32876 32878 28
26303 32876 32879 28
26304 32876 32880 28
26305 32881 32882 28
26306 32881 32883 28
26307 32881 32884 28
26308 32881 32885 28
26309 32886 32887 28
26310 32886 32888 28
26311 32886 32889 28
26312 32886 32890 28
26313 32891 32892 28
26314 32891 32893 28
26315 32891 32894 28
26316 32891 32895 28
26317 32896 32897 28
26318 32896 32898 28
26319 32896 32899 28
26320 32896 32900 28
26321 32901 32902 28
26322 32901 32903 28
26323 32901 32904 28
26324 32901 32905 28
26325 32906 32907 28
26326 32906 32908 28
26327 32906 32909 28
26328 32906 32910 28
26329 32911 32912 28
26330 32911 32913 28
26331 32911 32914 28
26332 32911 32915 28
26333 32916 32917 28
26334 32916 32918 28
26335 32916 32919 28
26336 32916 32920 28
26337 32921 32922 28
26338 32921 32923 28
26339 32921 32924 28
26340 32921 32925 28
26341 32926 32927 28
26342 32926 32928 28
26343 32926 32929 28
26344 32926 32930 28
26345 32931 32932 28
26346 32931 32933 28
26347 32931 32934 28
26348 32931 32935 28
26349 32936 32937 28
26350 32936 32938 28
26351 32936 32939 28
26352 32936 32940 28
26353 32941 32942 28
26354 32941 32943 28
26355 32941 32944 28
26356 32941 32945 28
26357 32946 32947 28
26358 32946 32948 28
26359 32946 32949 28
26360 32946 32950 28
26361 32951 32952 28
26362 32951 32953 28
26363 32951 32954 28
26364 32951 32955 28
26365 32956 32957 28
26366 32956 32958 28
26367 32956 32959 28
26368 32956 32960 28
26369 32961 32962 28
26370 32961 32963 28
26371 32961 32964 28
26372 32961 32965 28
26373 32966 32967 28
26374 32966 32968 28
26375 32966 32969 28
26376 32966 32970 28
26377 32971 32972 28
26378 32971 32973 28
26379 32971 32974 28
26380 32971 32975 28
26381 32976 32977 28
26382 32976 32978 28
26383 32976 32979 28
26384 32976 32980 28
26385 32981 32982 28
26386 32981 32983 28
26387 32981 32984 28
26388 32981 32985 28
26389 32986 32987 28
26390 32986 32988 28
26391 32986 32989 28
26392 32986 32990 28
26393 32991 32992 28
26394 32991 32993 28
26395 32991 32994 28
26396 32991 32995 28
26397 32996 32997 28
26398 32996 32998 28
26399 32996 32999 28
26400 32996 33000 28
26401 33001 33002 28
26402 33001 33003 28
26403 33001 33004 28
26404 33001 33005 28
26405 33006 33007 28
26406 33006 33008 28
26407 33006 33009 28
26408 33006 33010 28
26409 33011 33012 28
26410 33011 33013 28
26411 33011 33014 28
26412 33011 33015 28
26413 33016 33017 28
26414 33016 33018 28
26415 33016 33019 28
26416 33016 33020 28
26417 33021 33022 28
26418 33021 33023 28
26419 33021 33024 28
26420 33021 33025 28
26421 33026 33027 28
26422 33026 33028 28
26423 33026 33029 28
26424 33026 33030 28
26425 33031 33032 28
26426 33031 33033 28
26427 33031 33034 28
26428 33031 33035 28
26429 33036 33037 28
26430 33036 33038 28
26431 33036 33039 28
26432 33036 33040 28
26433 33041 33042 28
26434 33041 33043 28
26435 33041 33044 28
26436 33041 33045 28
26437 33046 33047 28
26438 33046 33048 28
26439 33046 33049 28
26440 33046 33050 28
26441 33051 33052 28
26442 33051 33053 28
26443 33051 33054 28
26444 33051 33055 28
26445 33056 33057 28
26446 33056 33058 28
26447 33056 33059 28
26448 33056 33060 28
26449 33061 33062 28
26450 33061 33063 28
26451 33061 33064 28
26452 33061 33065 28
26453 33066 33067 28
26454 33066 33068 28
26455 33066 33069 28
26456 33066 33070 28
26457 33071 33072 28
26458 33071 33073 28
26459 33071 33074 28
26460 33071 33075 28
26461 33076 33077 28
26462 33076 33078 28
26463 33076 33079 28
26464 33076 33080 28
26465 33081 33082 28
26466 33081 33083 28
26467 33081 33084 28
26468 33081 33085 28
26469 33086 33087 28
26470 33086 33088 28
26471 33086 33089 28
26472 33086 33090 28
26473 33091 33092 28
26474 33091 33093 28
26475 33091 33094 28
26476 33091 33095 28
26477 33096 33097 28
26478 33096 33098 28
26479 33096 33099 28
26480 33096 33100 28
26481 33101 33102 28
26482 33101 33103 28
26483 33101 33104 28
26484 33101 33105 28
26485 33106 33107 28
26486 33106 33108 28
26487 33106 33109 28
26488 33106 33110 28
26489 33111 33112 28
26490 33111 33113 28
26491 33111 33114 28
26492 33111 33115 28
26493 33116 33117 28
26494 33116 33118 28
26495 33116 33119 28
26496 33116 33120 28
26497 33121 33122 28
26498 33121 33123 28
26499 33121 33124 28
26500 33121 33125 28
26501 33126 33127 28
26502 33126 33128 28
26503 33126 33129 28
26504 33126 33130 28
26505 33131 33132 28
26506 33131 33133 28
26507 33131 33134 28
26508 33131 33135 28
26509 33136 33137 28
26510 33136 33138 28
26511 33136 33139 28
26512 33136 33140 28
26513 33141 33142 28
26514 33141 33143 28
26515 33141 33144 28
26516 33141 33145 28
26517 33146 33147 28
26518 33146 33148 28
26519 33146 33149 28
26520 33146 33150 28
26521 33151 33152 28
26522 33151 33153 28
26523 33151 33154 28
26524 33151 33155 28
26525 33156 33157 28
26526 33156 33158 28
26527 33156 33159 28
26528 33156 33160 28
26529 33161 33162 28
26530 33161 33163 28
26531 33161 33164 28
26532 33161 33165 28
26533 33166 33167 28
26534 33166 33168 28
26535 33166 33169 28
26536 33166 33170 28
26537 33171 33172 28
26538 33171 33173 28
26539 33171 33174 28
26540 33171 33175 28
26541 33176 33177 28
26542 33176 33178 28
26543 33176 33179 28
26544 33176 33180 28
26545 33181 33182 28
26546 33181 33183 28
26547 33181 33184 28
26548 33181 33185 28
26549 33186 33187 28
26550 33186 33188 28
26551 33186 33189 28
26552 33186 33190 28
26553 33191 33192 28
26554 33191 33193 28
26555 33191 33194 28
26556 33191 33195 28
26557 33196 33197 28
26558 33196 33198 28
26559 33196 33199 28
26560 33196 33200 28
26561 33201 33202 28
26562 33201 33203 28
26563 33201 33204 28
26564 33201 33205 28
26565 33206 33207 28
26566 33206 33208 28
26567 33206 33209 28
26568 33206 33210 28
26569 33211 33212 28
26570 33211 33213 28
26571 33211 33214 28
26572 33211 33215 28
26573 33216 33217 28
26574 33216 33218 28
26575 33216 33219 28
26576 33216 33220 28
26577 33221 33222 28
26578 33221 33223 28
26579 33221 33224 28
26580 33221 33225 28
26581 33226 33227 28
26582 33226 33228 28
26583 33226 33229 28
26584 33226 33230 28
26585 33231 33232 28
26586 33231 33233 28
26587 33231 33234 28
26588 33231 33235 28
26589 33236 33237 28
26590 33236 33238 28
26591 33236 33239 28
26592 33236 33240 28
26593 33241 33242 28
26594 33241 33243 28
26595 33241 33244 28
26596 33241 33245 28
26597 33246 33247 28
26598 33246 33248 28
26599 33246 33249 28
26600 33246 33250 28
26601 33251 33252 28
26602 33251 33253 28
26603 33251 33254 28
26604 33251 33255 28
26605 33256 33257 28
26606 33256 33258 28
26607 33256 33259 28
26608 33256 33260 28
26609 33261 33262 28
26610 33261 33263 28
26611 33261 33264 28
26612 33261 33265 28
26613 33266 33267 28
26614 33266 33268 28
26615 33266 33269 28
26616 33266 33270 28
26617 33271 33272 28
26618 33271 33273 28
26619 33271 33274 28
26620 33271 33275 28
26621 33276 33277 28
26622 33276 33278 28
26623 33276 33279 28
26624 33276 33280 28
26625 33281 33282 28
26626 33281 33283 28
26627 33281 33284 28
26628 33281 33285 28
26629 33286 33287 28
26630 33286 33288 28
26631 33286 33289 28
26632 33286 33290 28
26633 33291 33292 28
26634 33291 33293 28
26635 33291 33294 28
26636 33291 33295 28
26637 33296 33297 28
26638 33296 33298 28
26639 33296 33299 28
26640 33296 33300 28
26641 33301 33302 28
26642 33301 33303 28
26643 33301 33304 28
26644 33301 33305 28
26645 33306 33307 28
26646 33306 33308 28
26647 33306 33309 28
26648 33306 33310 28
26649 33311 33312 28
26650 33311 33313 28
26651 33311 33314 28
26652 33311 33315 28
26653 33316 33317 28
26654 33316 33318 28
26655 33316 33319 28
26656 33316 33320 28
26657 33321 33322 28
26658 33321 33323 28
26659 33321 33324 28
26660 33321 33325 28
26661 33326 33327 28
26662 33326 33328 28
26663 33326 33329 28
26664 33326 33330 28
26665 33331 33332 28
26666 33331 33333 28
26667 33331 33334 28
26668 33331 33335 28
26669 33336 33337 28
26670 33336 33338 28
26671 33336 33339 28
26672 33336 33340 28
26673 33341 33342 28
26674 33341 33343 28
26675 33341 33344 28
26676 33341 33345 28
26677 33346 33347 28
26678 33346 33348 28
26679 33346 33349 28
26680 33346 33350 28
26681 33351 33352 28
26682 33351 33353 28
26683 33351 33354 28
26684 33351 33355 28
26685 33356 33357 28
26686 33356 33358 28
26687 33356 33359 28
26688 33356 33360 28
26689 33361 33362 28
26690 33361 33363 28
26691 33361 33364 28
26692 33361 33365 28
26693 33366 33367 28
26694 33366 33368 28
26695 33366 33369 28
26696 33366 33370 28
26697 33371 33372 28
26698 33371 33373 28
26699 33371 33374 28
26700 33371 33375 28
26701 33376 33377 28
26702 33376 33378 28
26703 33376 33379 28
26704 33376 33380 28
26705 33381 33382 28
26706 33381 33383 28
26707 33381 33384 28
26708 33381 33385 28
26709 33386 33387 28
26710 33386 33388 28
26711 33386 33389 28
26712 33386 33390 28
26713 33391 33392 28
26714 33391 33393 28
26715 33391 33394 28
26716 33391 33395 28
26717 33396 33397 28
26718 33396 33398 28
26719 33396 33399 28
26720 33396 33400 28
26721 33401 33402 28
26722 33401 33403 28
26723 33401 33404 28
26724 33401 33405 28
26725 33406 33407 28
26726 33406 33408 28
26727 33406 33409 28
26728 33406 33410 28
26729 33411 33412 28
26730 33411 33413 28
26731 33411 33414 28
26732 33411 33415 28
26733 33416 33417 28
26734 33416 33418 28
26735 33416 33419 28
26736 33416 33420 28
26737 33421 33422 28
26738 33421 33423 28
26739 33421 33424 28
26740 33421 33425 28
26741 33426 33427 28
26742 33426 33428 28
26743 33426 33429 28
26744 33426 33430 28
26745 33431 33432 28
26746 33431 33433 28
26747 33431 33434 28
26748 33431 33435 28
26749 33436 33437 28
26750 33436 33438 28
26751 33436 33439 28
26752 33436 33440 28
26753 33441 33442 28
26754 33441 33443 28
26755 33441 33444 28
26756 33441 33445 28
26757 33446 33447 28
26758 33446 33448 28
26759 33446 33449 28
26760 33446 33450 28
26761 33451 33452 28
26762 33451 33453 28
26763 33451 33454 28
26764 33451 33455 28
26765 33456 33457 28
26766 33456 33458 28
26767 33456 33459 28
26768 33456 33460 28
26769 33461 33462 28
26770 33461 33463 28
26771 33461 33464 28
26772 33461 33465 28
26773 33466 33467 28
26774 33466 33468 28
26775 33466 33469 28
26776 33466 33470 28
26777 33471 33472 28
26778 33471 33473 28
26779 33471 33474 28
26780 33471 33475 28
26781 33476 33477 28
26782 33476 33478 28
26783 33476 33479 28
26784 33476 33480 28
26785 33481 33482 28
26786 33481 33483 28
26787 33481 33484 28
26788 33481 33485 28
26789 33486 33487 28
26790 33486 33488 28
26791 33486 33489 28
26792 33486 33490 28
26793 33491 33492 28
26794 33491 33493 28
26795 33491 33494 28
26796 33491 33495 28
26797 33496 33497 28
26798 33496 33498 28
26799 33496 33499 28
26800 33496 33500 28
26801 33501 33502 28
26802 33501 33503 28
26803 33501 33504 28
26804 33501 33505 28
26805 33506 33507 28
26806 33506 33508 28
26807 33506 33509 28
26808 33506 33510 28
26809 33511 33512 28
26810 33511 33513 28
26811 33511 33514 28
26812 33511 33515 28
26813 33516 33517 28
26814 33516 33518 28
26815 33516 33519 28
26816 33516 33520 28
26817 33521 33522 28
26818 33521 33523 28
26819 33521 33524 28
26820 33521 33525 28
26821 33526 33527 28
26822 33526 33528 28
26823 33526 33529 28
26824 33526 33530 28
26825 33531 33532 28
26826 33531 33533 28
26827 33531 33534 28
26828 33531 33535 28
26829 33536 33537 28
26830 33536 33538 28
26831 33536 33539 28
26832 33536 33540 28
26833 33541 33542 28
26834 33541 33543 28
26835 33541 33544 28
26836 33541 33545 28
26837 33546 33547 28
26838 33546 33548 28
26839 33546 33549 28
26840 33546 33550 28
26841 33551 33552 28
26842 33551 33553 28
26843 33551 33554 28
26844 33551 33555 28
26845 33556 33557 28
26846 33556 33558 28
26847 33556 33559 28
26848 33556 33560 28
26849 33561 33562 28
26850 33561 33563 28
26851 33561 33564 28
26852 33561 33565 28
26853 33566 33567 28
26854 33566 33568 28
26855 33566 33569 28
26856 33566 33570 28
26857 33571 33572 28
26858 33571 33573 28
26859 33571 33574 28
26860 33571 33575 28
26861 33576 33577 28
26862 33576 33578 28
26863 33576 33579 28
26864 33576 33580 28
26865 33581 33582 28
26866 33581 33583 28
26867 33581 33584 28
26868 33581 33585 28
26869 33586 33587 28
26870 33586 33588 28
26871 33586 33589 28
26872 33586 33590 28
26873 33591 33592 28
26874 33591 33593 28
26875 33591 33594 28
26876 33591 33595 28
26877 33596 33597 28
26878 33596 33598 28
26879 33596 33599 28
26880 33596 33600 28
26881 33601 33602 28
26882 33601 33603 28
26883 33601 33604 28
26884 33601 33605 28
26885 33606 33607 28
26886 33606 33608 28
26887 33606 33609 28
26888 33606 33610 28
26889 33611 33612 28
26890 33611 33613 28
26891 33611 33614 28
26892 33611 33615 28
26893 33616 33617 28
26894 33616 33618 28
26895 33616 33619 28
26896 33616 33620 28
26897 33621 33622 28
26898 33621 33623 28
26899 33621 33624 28
26900 33621 33625 28
26901 33626 33627 28
26902 33626 33628 28
26903 33626 33629 28
26904 33626 33630 28
26905 33631 33632 28
26906 33631 33633 28
26907 33631 33634 28
26908 33631 33635 28
26909 33636 33637 28
26910 33636 33638 28
26911 33636 33639 28
26912 33636 33640 28
26913 33641 33642 28
26914 33641 33643 28
26915 33641 33644 28
26916 33641 33645 28
26917 33646 33647 28
26918 33646 33648 28
26919 33646 33649 28
26920 33646 33650 28
26921 33651 33652 28
26922 33651 33653 28
26923 33651 33654 28
26924 33651 33655 28
26925 33656 33657 28
26926 33656 33658 28
26927 33656 33659 28
26928 33656 33660 28
26929 33661 33662 28
26930 33661 33663 28
26931 33661 33664 28
26932 33661 33665 28
26933 33666 33667 28
26934 33666 33668 28
26935 33666 33669 28
26936 33666 33670 28
26937 33671 33672 28
26938 33671 33673 28
26939 33671 33674 28
26940 33671 33675 28
26941 33676 33677 28
26942 33676 33678 28
26943 33676 33679 28
26944 33676 33680 28
26945 33681 33682 28
26946 33681 33683 28
26947 33681 33684 28
26948 33681 33685 28
26949 33686 33687 28
26950 33686 33688 28
26951 33686 33689 28
26952 33686 33690 28
26953 33691 33692 28
26954 33691 33693 28
26955 33691 33694 28
26956 33691 33695 28
26957 33696 33697 28
26958 33696 33698 28
26959 33696 33699 28
26960 33696 33700 28
26961 33701 33702 28
26962 33701 33703 28
26963 33701 33704 28
26964 33701 33705 28
26965 33706 33707 28
26966 33706 33708 28
26967 33706 33709 28
26968 33706 33710 28
26969 33711 33712 28
26970 33711 33713 28
26971 33711 33714 28
26972 33711 33715 28
26973 33716 33717 28
26974 33716 33718 28
26975 33716 33719 28
26976 33716 33720 28
26977 33721 33722 28
26978 33721 33723 28
26979 33721 33724 28
26980 33721 33725 28
26981 33726 33727 28
26982 33726 33728 28
26983 33726 33729 28
26984 33726 33730 28
26985 33731 33732 28
26986 33731 33733 28
26987 33731 33734 28
26988 33731 33735 28
26989 33736 33737 28
26990 33736 33738 28
26991 33736 33739 28
26992 33736 33740 28
26993 33741 33742 28
26994 33741 33743 28
26995 33741 33744 28
26996 33741 33745 28
26997 33746 33747 28
26998 33746 33748 28
26999 33746 33749 28
27000 33746 33750 28
27001 33751 33752 28
27002 33751 33753 28
27003 33751 33754 28
27004 33751 33755 28
27005 33756 33757 28
27006 33756 33758 28
27007 33756 33759 28
27008 33756 33760 28
27009 33761 33762 28
27010 33761 33763 28
27011 33761 33764 28
27012 33761 33765 28
27013 33766 33767 28
27014 33766 33768 28
27015 33766 33769 28
27016 33766 33770 28
27017 33771 33772 28
27018 33771 33773 28
27019 33771 33774 28
27020 33771 33775 28
27021 33776 33777 28
27022 33776 33778 28
27023 33776 33779 28
27024 33776 33780 28
27025 33781 33782 28
27026 33781 33783 28
27027 33781 33784 28
27028 33781 33785 28
27029 33786 33787 28
27030 33786 33788 28
27031 33786 33789 28
27032 33786 33790 28
27033 33791 33792 28
27034 33791 33793 28
27035 33791 33794 28
27036 33791 33795 28
27037 33796 33797 28
27038 33796 33798 28
27039 33796 33799 28
27040 33796 33800 28
27041 33801 33802 28
27042 33801 33803 28
27043 33801 33804 28
27044 33801 33805 28
27045 33806 33807 28
27046 33806 33808 28
27047 33806 33809 28
27048 33806 33810 28
27049 33811 33812 28
27050 33811 33813 28
27051 33811 33814 28
27052 33811 33815 28
27053 33816 33817 28
27054 33816 33818 28
27055 33816 33819 28
27056 33816 33820 28
27057 33821 33822 28
27058 33821 33823 28
27059 33821 33824 28
27060 33821 33825 28
27061 33826 33827 28
27062 33826 33828 28
27063 33826 33829 28
27064 33826 33830 28
27065 33831 33832 28
27066 33831 33833 28
27067 33831 33834 28
27068 33831 33835 28
27069 33836 33837 28
27070 33836 33838 28
27071 33836 33839 28
27072 33836 33840 28
27073 33841 33842 28
27074 33841 33843 28
27075 33841 33844 28
27076 33841 33845 28
27077 33846 33847 28
27078 33846 33848 28
27079 33846 33849 28
27080 33846 33850 28
27081 33851 33852 28
27082 33851 33853 28
27083 33851 33854 28
27084 33851 33855 28
27085 33856 33857 28
27086 33856 33858 28
27087 33856 33859 28
27088 33856 33860 28
27089 33861 33862 28
27090 33861 33863 28
27091 33861 33864 28
27092 33861 33865 28
27093 33866 33867 28
27094 33866 33868 28
27095 33866 33869 28
27096 33866 33870 28
27097 33871 33872 28
27098 33871 33873 28
27099 33871 33874 28
27100 33871 33875 28
27101 33876 33877 28
27102 33876 33878 28
27103 33876 33879 28
27104 33876 33880 28
27105 33881 33882 28
27106 33881 33883 28
27107 33881 33884 28
27108 33881 33885 28
27109 33886 33887 28
27110 33886 33888 28
27111 33886 33889 28
27112 33886 33890 28
27113 33891 33892 28
27114 33891 33893 28
27115 33891 33894 28
27116 33891 33895 28
27117 33896 33897 28
27118 33896 33898 28
27119 33896 33899 28
27120 33896 33900 28
27121 33901 33902 28
27122 33901 33903 28
27123 33901 33904 28
27124 33901 33905 28
27125 33906 33907 28
27126 33906 33908 28
27127 33906 33909 28
27128 33906 33910 28
27129 33911 33912 28
27130 33911 33913 28
27131 33911 33914 28
27132 33911 33915 28
27133 33916 33917 28
27134 33916 33918 28
27135 33916 33919 28
27136 33916 33920 28
27137 33921 33922 28
27138 33921 33923 28
27139 33921 33924 28
27140 33921 33925 28
27141 33926 33927 28
27142 33926 33928 28
27143 33926 33929 28
27144 33926 33930 28
27145 33931 33932 28
27146 33931 33933 28
27147 33931 33934 28
27148 33931 33935 28
27149 33936 33937 28
27150 33936 33938 28
27151 33936 33939 28
27152 33936 33940 28
27153 33941 33942 28
27154 33941 33943 28
27155 33941 33944 28
27156 33941 33945 28
27157 33946 33947 28
27158 33946 33948 28
27159 33946 33949 28
27160 33946 33950 28
27161 33951 33952 28
27162 33951 33953 28
27163 33951 33954 28
27164 33951 33955 28
27165 33956 33957 28
27166 33956 33958 28
27167 33956 33959 28
27168 33956 33960 28
27169 33961 33962 28
27170 33961 33963 28
27171 33961 33964 28
27172 33961 33965 28
27173 33966 33967 28
27174 33966 33968 28
27175 33966 33969 28
27176 33966 33970 28
27177 33971 33972 28
27178 33971 33973 28
27179 33971 33974 28
27180 33971 33975 28
27181 33976 33977 28
27182 33976 33978 28
27183 33976 33979 28
27184 33976 33980 28
27185 33981 33982 28
27186 33981 33983 28
27187 33981 33984 28
27188 33981 33985 28
27189 33986 33987 28
27190 33986 33988 28
27191 33986 33989 28
27192 33986 33990 28
27193 33991 33992 28
27194 33991 33993 28
27195 33991 33994 28
27196 33991 33995 28
27197 33996 33997 28
27198 33996 33998 28
27199 33996 33999 28
27200 33996 34000 28
27201 34001 34002 28
27202 34001 34003 28
27203 34001 34004 28
27204 34001 34005 28
27205 34006 34007 28
27206 34006 34008 28
27207 34006 34009 28
27208 34006 34010 28
27209 34011 34012 28
27210 34011 34013 28
27211 34011 34014 28
27212 34011 34015 28
27213 34016 34017 28
27214 34016 34018 28
27215 34016 34019 28
27216 34016 34020 28
27217 34021 34022 28
27218 34021 34023 28
27219 34021 34024 28
27220 34021 34025 28
27221 34026 34027 28
27222 34026 34028 28
27223 34026 34029 28
27224 34026 34030 28
27225 34031 34032 28
27226 34031 34033 28
27227 34031 34034 28
27228 34031 34035 28
27229 34036 34037 28
27230 34036 34038 28
27231 34036 34039 28
27232 34036 34040 28
27233 34041 34042 28
27234 34041 34043 28
27235 34041 34044 28
27236 34041 34045 28
27237 34046 34047 28
27238 34046 34048 28
27239 34046 34049 28
27240 34046 34050 28
27241 34051 34052 28
27242 34051 34053 28
27243 34051 34054 28
27244 34051 34055 28
27245 34056 34057 28
27246 34056 34058 28
27247 34056 34059 28
27248 34056 34060 28
27249 34061 34062 28
27250 34061 34063 28
27251 34061 34064 28
27252 34061 34065 28
27253 34066 34067 28
27254 34066 34068 28
27255 34066 34069 28
27256 34066 34070 28
27257 34071 34072 28
27258 34071 34073 28
27259 34071 34074 28
27260 34071 34075 28
27261 34076 34077 28
27262 34076 34078 28
27263 34076 34079 28
27264 34076 34080 28
27265 34081 34082 28
27266 34081 34083 28
27267 34081 34084 28
27268 34081 34085 28
27269 34086 34087 28
27270 34086 34088 28
27271 34086 34089 28
27272 34086 34090 28
27273 34091 34092 28
27274 34091 34093 28
27275 34091 34094 28
27276 34091 34095 28
27277 34096 34097 28
27278 34096 34098 28
27279 34096 34099 28
27280 34096 34100 28
27281 34101 34102 28
27282 34101 34103 28
27283 34101 34104 28
27284 34101 34105 28
27285 34106 34107 28
27286 34106 34108 28
27287 34106 34109 28
27288 34106 34110 28
27289 34111 34112 28
27290 34111 34113 28
27291 34111 34114 28
27292 34111 34115 28
27293 34116 34117 28
27294 34116 34118 28
27295 34116 34119 28
27296 34116 34120 28
27297 34121 34122 28
27298 34121 34123 28
27299 34121 34124 28
27300 34121 34125 28
27301 34126 34127 28
27302 34126 34128 28
27303 34126 34129 28
27304 34126 34130 28
27305 34131 34132 28
27306 34131 34133 28
27307 34131 34134 28
27308 34131 34135 28
27309 34136 34137 28
27310 34136 34138 28
27311 34136 34139 28
27312 34136 34140 28
27313 34141 34142 28
27314 34141 34143 28
27315 34141 34144 28
27316 34141 34145 28
27317 34146 34147 28
27318 34146 34148 28
27319 34146 34149 28
27320 34146 34150 28
27321 34151 34152 28
27322 34151 34153 28
27323 34151 34154 28
27324 34151 34155 28
27325 34156 34157 28
27326 34156 34158 28
27327 34156 34159 28
27328 34156 34160 28
27329 34161 34162 28
27330 34161 34163 28
27331 34161 34164 28
27332 34161 34165 28
27333 34166 34167 28
27334 34166 34168 28
27335 34166 34169 28
27336 34166 34170 28
27337 34171 34172 28
27338 34171 34173 28
27339 34171 34174 28
27340 34171 34175 28
27341 34176 34177 28
27342 34176 34178 28
27343 34176 34179 28
27344 34176 34180 28
27345 34181 34182 28
27346 34181 34183 28
27347 34181 34184 28
27348 34181 34185 28
27349 34186 34187 28
27350 34186 34188 28
27351 34186 34189 28
27352 34186 34190 28
27353 34191 34192 28
27354 34191 34193 28
27355 34191 34194 28
27356 34191 34195 28
27357 34196 34197 28
27358 34196 34198 28
27359 34196 34199 28
27360 34196 34200 28
27361 34201 34202 28
27362 34201 34203 28
27363 34201 34204 28
27364 34201 34205 28
27365 34206 34207 28
27366 34206 34208 28
27367 34206 34209 28
27368 34206 34210 28
27369 34211 34212 28
27370 34211 34213 28
27371 34211 34214 28
27372 34211 34215 28
27373 34216 34217 28
27374 34216 34218 28
27375 34216 34219 28
27376 34216 34220 28
27377 34221 34222 28
27378 34221 34223 28
27379 34221 34224 28
27380 34221 34225 28
27381 34226 34227 28
27382 34226 34228 28
27383 34226 34229 28
27384 34226 34230 28
27385 34231 34232 28
27386 34231 34233 28
27387 34231 34234 28
27388 34231 34235 28
27389 34236 34237 28
27390 34236 34238 28
27391 34236 34239 28
27392 34236 34240 28
27393 34241 34242 28
27394 34241 34243 28
27395 34241 34244 28
27396 34241 34245 28
27397 34246 34247 28
27398 34246 34248 28
27399 34246 34249 28
27400 34246 34250 28
27401 34251 34252 28
27402 34251 34253 28
27403 34251 34254 28
27404 34251 34255 28
27405 34256 34257 28
27406 34256 34258 28
27407 34256 34259 28
27408 34256 34260 28
27409 34261 34262 28
27410 34261 34263 28
27411 34261 34264 28
27412 34261 34265 28
27413 34266 34267 28
27414 34266 34268 28
27415 34266 34269 28
27416 34266 34270 28
27417 34271 34272 28
27418 34271 34273 28
27419 34271 34274 28
27420 34271 34275 28
27421 34276 34277 28
27422 34276 34278 28
27423 34276 34279 28
27424 34276 34280 28
27425 34281 34282 28
27426 34281 34283 28
27427 34281 34284 28
27428 34281 34285 28
27429 34286 34287 28
27430 34286 34288 28
27431 34286 34289 28
27432 34286 34290 28
27433 34291 34292 28
27434 34291 34293 28
27435 34291 34294 28
27436 34291 34295 28
27437 34296 34297 28
27438 34296 34298 28
27439 34296 34299 28
27440 34296 34300 28
27441 34301 34302 28
27442 34301 34303 28
27443 34301 34304 28
27444 34301 34305 28
27445 34306 34307 28
27446 34306 34308 28
27447 34306 34309 28
27448 34306 34310 28
27449 34311 34312 28
27450 34311 34313 28
27451 34311 34314 28
27452 34311 34315 28
27453 34316 34317 28
27454 34316 34318 28
27455 34316 34319 28
27456 34316 34320 28
27457 34321 34322 28
27458 34321 34323 28
27459 34321 34324 28
27460 34321 34325 28
27461 34326 34327 28
27462 34326 34328 28
27463 34326 34329 28
27464 34326 34330 28
27465 34331 34332 28
27466 34331 34333 28
27467 34331 34334 28
27468 34331 34335 28
27469 34336 34337 28
27470 34336 34338 28
27471 34336 34339 28
27472 34336 34340 28
27473 34341 34342 28
27474 34341 34343 28
27475 34341 34344 28
27476 34341 34345 28
27477 34346 34347 28
27478 34346 34348 28
27479 34346 34349 28
27480 34346 34350 28
27481 34351 34352 28
27482 34351 34353 28
27483 34351 34354 28
27484 34351 34355 28
27485 34356 34357 28
27486 34356 34358 28
27487 34356 34359 28
27488 34356 34360 28
27489 34361 34362 28
27490 34361 34363 28
27491 34361 34364 28
27492 34361 34365 28
27493 34366 34367 28
27494 34366 34368 28
27495 34366 34369 28
27496 34366 34370 28
27497 34371 34372 28
27498 34371 34373 28
27499 34371 34374 28
27500 34371 34375 28
27501 34376 34377 28
27502 34376 34378 28
27503 34376 34379 28
27504 34376 34380 28
27505 34381 34382 28
27506 34381 34383 28
27507 34381 34384 28
27508 34381 34385 28
27509 34386 34387 28
27510 34386 34388 28
27511 34386 34389 28
27512 34386 34390 28
27513 34391 34392 28
27514 34391 34393 28
27515 34391 34394 28
27516 34391 34395 28
27517 34396 34397 28
27518 34396 34398 28
27519 34396 34399 28
27520 34396 34400 28
27521 34401 34402 28
27522 34401 34403 28
27523 34401 34404 28
27524 34401 34405 28
27525 34406 34407 28
27526 34406 34408 28
27527 34406 34409 28
27528 34406 34410 28
27529 34411 34412 28
27530 34411 34413 28
27531 34411 34414 28
27532 34411 34415 28
27533 34416 34417 28
27534 34416 34418 28
27535 34416 34419 28
27536 34416 34420 28
27537 34421 34422 28
27538 34421 34423 28
27539 34421 34424 28
27540 34421 34425 28
27541 34426 34427 28
27542 34426 34428 28
27543 34426 34429 28
27544 34426 34430 28
27545 34431 34432 28
27546 34431 34433 28
27547 34431 34434 28
27548 34431 34435 28
27549 34436 34437 28
27550 34436 34438 28
27551 34436 34439 28
27552 34436 34440 28
27553 34441 34442 28
27554 34441 34443 28
27555 34441 34444 28
27556 34441 34445 28
27557 34446 34447 28
27558 34446 34448 28
27559 34446 34449 28
27560 34446 34450 28
27561 34451 34452 28
27562 34451 34453 28
27563 34451 34454 28
27564 34451 34455 28
27565 34456 34457 28
27566 34456 34458 28
27567 34456 34459 28
27568 34456 34460 28
27569 34461 34462 28
27570 34461 34463 28
27571 34461 34464 28
27572 34461 34465 28
27573 34466 34467 28
27574 34466 34468 28
27575 34466 34469 28
27576 34466 34470 28
27577 34471 34472 28
27578 34471 34473 28
27579 34471 34474 28
27580 34471 34475 28
27581 34476 34477 28
27582 34476 34478 28
27583 34476 34479 28
27584 34476 34480 28
27585 34481 34482 28
27586 34481 34483 28
27587 34481 34484 28
27588 34481 34485 28
27589 34486 34487 28
27590 34486 34488 28
27591 34486 34489 28
27592 34486 34490 28
27593 34491 34492 28
27594 34491 34493 28
27595 34491 34494 28
27596 34491 34495 28
27597 34496 34497 28
27598 34496 34498 28
27599 34496 34499 28
27600 34496 34500 28
27601 34501 34502 28
27602 34501 34503 28
27603 34501 34504 28
27604 34501 34505 28
27605 34506 34507 28
27606 34506 34508 28
27607 34506 34509 28
27608 34506 34510 28
27609 34511 34512 28
27610 34511 34513 28
27611 34511 34514 28
27612 34511 34515 28
27613 34516 34517 28
27614 34516 34518 28
27615 34516 34519 28
27616 34516 34520 28
27617 34521 34522 28
27618 34521 34523 28
27619 34521 34524 28
27620 34521 34525 28
27621 34526 34527 28
27622 34526 34528 28
27623 34526 34529 28
27624 34526 34530 28
27625 34531 34532 28
27626 34531 34533 28
27627 34531 34534 28
27628 34531 34535 28
27629 34536 34537 28
27630 34536 34538 28
27631 34536 34539 28
27632 34536 34540 28
27633 34541 34542 28
27634 34541 34543 28
27635 34541 34544 28
27636 34541 34545 28
27637 34546 34547 28
27638 34546 34548 28
27639 34546 34549 28
27640 34546 34550 28
27641 34551 34552 28
27642 34551 34553 28
27643 34551 34554 28
27644 34551 34555 28
27645 34556 34557 28
27646 34556 34558 28
27647 34556 34559 28
27648 34556 34560 28
27649 34561 34562 28
27650 34561 34563 28
27651 34561 34564 28
27652 34561 34565 28
27653 34566 34567 28
27654 34566 34568 28
27655 34566 34569 28
27656 34566 34570 28
27657 34571 34572 28
27658 34571 34573 28
27659 34571 34574 28
27660 34571 34575 28
27661 34576 34577 28
27662 34576 34578 28
27663 34576 34579 28
27664 34576 34580 28
27665 34581 34582 28
27666 34581 34583 28
27667 34581 34584 28
27668 34581 34585 28
27669 34586 34587 28
27670 34586 34588 28
27671 34586 34589 28
27672 34586 34590 28
27673 34591 34592 28
27674 34591 34593 28
27675 34591 34594 28
27676 34591 34595 28
27677 34596 34597 28
27678 34596 34598 28
27679 34596 34599 28
27680 34596 34600 28
27681 34601 34602 28
27682 34601 34603 28
27683 34601 34604 28
27684 34601 34605 28
27685 34606 34607 28
27686 34606 34608 28
27687 34606 34609 28
27688 34606 34610 28
27689 34611 34612 28
27690 34611 34613 28
27691 34611 34614 28
27692 34611 34615 28
27693 34616 34617 28
27694 34616 34618 28
27695 34616 34619 28
27696 34616 34620 28
27697 34621 34622 28
27698 34621 34623 28
27699 34621 34624 28
27700 34621 34625 28
27701 34626 34627 28
27702 34626 34628 28
27703 34626 34629 28
27704 34626 34630 28
27705 34631 34632 28
27706 34631 34633 28
27707 34631 34634 28
27708 34631 34635 28
27709 34636 34637 28
27710 34636 34638 28
27711 34636 34639 28
27712 34636 34640 28
27713 34641 34642 28
27714 34641 34643 28
27715 34641 34644 28
27716 34641 34645 28
27717 34646 34647 28
27718 34646 34648 28
27719 34646 34649 28
27720 34646 34650 28
27721 34651 34652 28
27722 34651 34653 28
27723 34651 34654 28
27724 34651 34655 28
27725 34656 34657 28
27726 34656 34658 28
27727 34656 34659 28
27728 34656 34660 28
27729 34661 34662 28
27730 34661 34663 28
27731 34661 34664 28
27732 34661 34665 28
27733 34666 34667 28
27734 34666 34668 28
27735 34666 34669 28
27736 34666 34670 28
27737 34671 34672 28
27738 34671 34673 28
27739 34671 34674 28
27740 34671 34675 28
27741 34676 34677 28
27742 34676 34678 28
27743 34676 34679 28
27744 34676 34680 28
27745 34681 34682 28
27746 34681 34683 28
27747 34681 34684 28
27748 34681 34685 28
27749 34686 34687 28
27750 34686 34688 28
27751 34686 34689 28
27752 34686 34690 28
27753 34691 34692 28
27754 34691 34693 28
27755 34691 34694 28
27756 34691 34695 28
27757 34696 34697 28
27758 34696 34698 28
27759 34696 34699 28
27760 34696 34700 28
27761 34701 34702 28
27762 34701 34703 28
27763 34701 34704 28
27764 34701 34705 28
27765 34706 34707 28
27766 34706 34708 28
27767 34706 34709 28
27768 34706 34710 28
27769 34711 34712 28
27770 34711 34713 28
27771 34711 34714 28
27772 34711 34715 28
27773 34716 34717 28
27774 34716 34718 28
27775 34716 34719 28
27776 34716 34720 28
27777 34721 34722 28
27778 34721 34723 28
27779 34721 34724 28
27780 34721 34725 28
27781 34726 34727 28
27782 34726 34728 28
27783 34726 34729 28
27784 34726 34730 28
27785 34731 34732 28
27786 34731 34733 28
27787 34731 34734 28
27788 34731 34735 28
27789 34736 34737 28
27790 34736 34738 28
27791 34736 34739 28
27792 34736 34740 28
27793 34741 34742 28
27794 34741 34743 28
27795 34741 34744 28
27796 34741 34745 28
27797 34746 34747 28
27798 34746 34748 28
27799 34746 34749 28
27800 34746 34750 28
27801 34751 34752 28
27802 34751 34753 28
27803 34751 34754 28
27804 34751 34755 28
27805 34756 34757 28
27806 34756 34758 28
27807 34756 34759 28
27808 34756 34760 28
27809 34761 34762 28
27810 34761 34763 28
27811 34761 34764 28
27812 34761 34765 28
27813 34766 34767 28
27814 34766 34768 28
27815 34766 34769 28
27816 34766 34770 28
27817 34771 34772 28
27818 34771 34773 28
27819 34771 34774 28
27820 34771 34775 28
27821 34776 34777 28
27822 34776 34778 28
27823 34776 34779 28
27824 34776 34780 28
27825 34781 34782 28
27826 34781 34783 28
27827 34781 34784 28
27828 34781 34785 28
27829 34786 34787 28
27830 34786 34788 28
27831 34786 34789 28
27832 34786 34790 28
27833 34791 34792 28
27834 34791 34793 28
27835 34791 34794 28
27836 34791 34795 28
27837 34796 34797 28
27838 34796 34798 28
27839 34796 34799 28
27840 34796 34800 28
27841 34801 34802 28
27842 34801 34803 28
27843 34801 34804 28
27844 34801 34805 28
27845 34806 34807 28
27846 34806 34808 28
27847 34806 34809 28
27848 34806 34810 28
27849 34811 34812 28
27850 34811 34813 28
27851 34811 34814 28
27852 34811 34815 28
27853 34816 34817 28
27854 34816 34818 28
27855 34816 34819 28
27856 34816 34820 28
27857 34821 34822 28
27858 34821 34823 28
27859 34821 34824 28
27860 34821 34825 28
27861 34826 34827 28
27862 34826 34828 28
27863 34826 34829 28
27864 34826 34830 28
27865 34831 34832 28
27866 34831 34833 28
27867 34831 34834 28
27868 34831 34835 28
27869 34836 34837 28
27870 34836 34838 28
27871 34836 34839 28
27872 34836 34840 28
27873 34841 34842 28
27874 34841 34843 28
27875 34841 34844 28
27876 34841 34845 28
27877 34846 34847 28
27878 34846 34848 28
27879 34846 34849 28
27880 34846 34850 28
27881 34851 34852 28
27882 34851 34853 28
27883 34851 34854 28
27884 34851 34855 28
27885 34856 34857 28
27886 34856 34858 28
27887 34856 34859 28
27888 34856 34860 28
27889 34861 34862 28
27890 34861 34863 28
27891 34861 34864 28
27892 34861 34865 28
27893 34866 34867 28
27894 34866 34868 28
27895 34866 34869 28
27896 34866 34870 28
27897 34871 34872 28
27898 34871 34873 28
27899 34871 34874 28
27900 34871 34875 28
27901 34876 34877 28
27902 34876 34878 28
27903 34876 34879 28
27904 34876 34880 28
27905 34881 34882 28
27906 34881 34883 28
27907 34881 34884 28
27908 34881 34885 28
27909 34886 34887 28
27910 34886 34888 28
27911 34886 34889 28
27912 34886 34890 28
27913 34891 34892 28
27914 34891 34893 28
27915 34891 34894 28
27916 34891 34895 28
27917 34896 34897 28
27918 34896 34898 28
27919 34896 34899 28
27920 34896 34900 28
27921 34901 34902 28
27922 34901 34903 28
27923 34901 34904 28
27924 34901 34905 28
27925 34906 34907 28
27926 34906 34908 28
27927 34906 34909 28
27928 34906 34910 28
27929 34911 34912 28
27930 34911 34913 28
27931 34911 34914 28
27932 34911 34915 28
27933 34916 34917 28
27934 34916 34918 28
27935 34916 34919 28
27936 34916 34920 28
27937 34921 34922 28
27938 34921 34923 28
27939 34921 34924 28
27940 34921 34925 28
27941 34926 34927 28
27942 34926 34928 28
27943 34926 34929 28
27944 34926 34930 28
27945 34931 34932 28
27946 34931 34933 28
27947 34931 34934 28
27948 34931 34935 28
27949 34936 34937 28
27950 34936 34938 28
27951 34936 34939 28
27952 34936 34940 28
27953 34941 34942 28
27954 34941 34943 28
27955 34941 34944 28
27956 34941 34945 28
27957 34946 34947 28
27958 34946 34948 28
27959 34946 34949 28
27960 34946 34950 28
27961 34951 34952 28
27962 34951 34953 28
27963 34951 34954 28
27964 34951 34955 28
27965 34956 34957 28
27966 34956 34958 28
27967 34956 34959 28
27968 34956 34960 28
27969 34961 34962 28
27970 34961 34963 28
27971 34961 34964 28
27972 34961 34965 28
27973 34966 34967 28
27974 34966 34968 28
27975 34966 34969 28
27976 34966 34970 28
27977 34971 34972 28
27978 34971 34973 28
27979 34971 34974 28
27980 34971 34975 28
27981 34976 34977 28
27982 34976 34978 28
27983 34976 34979 28
27984 34976 34980 28
27985 34981 34982 28
27986 34981 34983 28
27987 34981 34984 28
27988 34981 34985 28
27989 34986 34987 28
27990 34986 34988 28
27991 34986 34989 28
27992 34986 34990 28
27993 34991 34992 28
27994 34991 34993 28
27995 34991 34994 28
27996 34991 34995 28
27997 34996 34997 28
27998 34996 34998 28
27999 34996 34999 28
28000 34996 35000 28
28001 35001 35002 28
28002 35001 35003 28
28003 35001 35004 28
28004 35001 35005 28
28005 35006 35007 28
28006 35006 35008 28
28007 35006 35009 28
28008 35006 35010 28
28009 35011 35012 28
28010 35011 35013 28
28011 35011 35014 28
28012 35011 35015 28
28013 35016 35017 28
28014 35016 35018 28
28015 35016 35019 28
28016 35016 35020 28
28017 35021 35022 28
28018 35021 35023 28
28019 35021 35024 28
28020 35021 35025 28
28021 35026 35027 28
28022 35026 35028 28
28023 35026 35029 28
28024 35026 35030 28
28025 35031 35032 28
28026 35031 35033 28
28027 35031 35034 28
28028 35031 35035 28
28029 35036 35037 28
28030 35036 35038 28
28031 35036 35039 28
28032 35036 35040 28
28033 35041 35042 28
28034 35041 35043 28
28035 35041 35044 28
28036 35041 35045 28
28037 35046 35047 28
28038 35046 35048 28
28039 35046 35049 28
28040 35046 35050 28
28041 35051 35052 28
28042 35051 35053 28
28043 35051 35054 28
28044 35051 35055 28
28045 35056 35057 28
28046 35056 35058 28
28047 35056 35059 28
28048 35056 35060 28
28049 35061 35062 28
28050 35061 35063 28
28051 35061 35064 28
28052 35061 35065 28
28053 35066 35067 28
28054 35066 35068 28
28055 35066 35069 28
28056 35066 35070 28
28057 35071 35072 28
28058 35071 35073 28
28059 35071 35074 28
28060 35071 35075 28
28061 35076 35077 28
28062 35076 35078 28
28063 35076 35079 28
28064 35076 35080 28
28065 35081 35082 28
28066 35081 35083 28
28067 35081 35084 28
28068 35081 35085 28
28069 35086 35087 28
28070 35086 35088 28
28071 35086 35089 28
28072 35086 35090 28
28073 35091 35092 28
28074 35091 35093 28
28075 35091 35094 28
28076 35091 35095 28
28077 35096 35097 28
28078 35096 35098 28
28079 35096 35099 28
28080 35096 35100 28
28081 35101 35102 28
28082 35101 35103 28
28083 35101 35104 28
28084 35101 35105 28
28085 35106 35107 28
28086 35106 35108 28
28087 35106 35109 28
28088 35106 35110 28
28089 35111 35112 28
28090 35111 35113 28
28091 35111 35114 28
28092 35111 35115 28
28093 35116 35117 28
28094 35116 35118 28
28095 35116 35119 28
28096 35116 35120 28
28097 35121 35122 28
28098 35121 35123 28
28099 35121 35124 28
28100 35121 35125 28
28101 35126 35127 28
28102 35126 35128 28
28103 35126 35129 28
28104 35126 35130 28
28105 35131 35132 28
28106 35131 35133 28
28107 35131 35134 28
28108 35131 35135 28
28109 35136 35137 28
28110 35136 35138 28
28111 35136 35139 28
28112 35136 35140 28
28113 35141 35142 28
28114 35141 35143 28
28115 35141 35144 28
28116 35141 35145 28
28117 35146 35147 28
28118 35146 35148 28
28119 35146 35149 28
28120 35146 35150 28
28121 35151 35152 28
28122 35151 35153 28
28123 35151 35154 28
28124 35151 35155 28
28125 35156 35157 28
28126 35156 35158 28
28127 35156 35159 28
28128 35156 35160 28
28129 35161 35162 28
28130 35161 35163 28
28131 35161 35164 28
28132 35161 35165 28
28133 35166 35167 28
28134 35166 35168 28
28135 35166 35169 28
28136 35166 35170 28
28137 35171 35172 28
28138 35171 35173 28
28139 35171 35174 28
28140 35171 35175 28
28141 35176 35177 28
28142 35176 35178 28
28143 35176 35179 28
28144 35176 35180 28
28145 35181 35182 28
28146 35181 35183 28
28147 35181 35184 28
28148 35181 35185 28
28149 35186 35187 28
28150 35186 35188 28
28151 35186 35189 28
28152 35186 35190 28
28153 35191 35192 28
28154 35191 35193 28
28155 35191 35194 28
28156 35191 35195 28
28157 35196 35197 28
28158 35196 35198 28
28159 35196 35199 28
28160 35196 35200 28
28161 35201 35202 28
28162 35201 35203 28
28163 35201 35204 28
28164 35201 35205 28
28165 35206 35207 28
28166 35206 35208 28
28167 35206 35209 28
28168 35206 35210 28
28169 35211 35212 28
28170 35211 35213 28
28171 35211 35214 28
28172 35211 35215 28
28173 35216 35217 28
28174 35216 35218 28
28175 35216 35219 28
28176 35216 35220 28
28177 35221 35222 28
28178 35221 35223 28
28179 35221 35224 28
28180 35221 35225 28
28181 35226 35227 28
28182 35226 35228 28
28183 35226 35229 28
28184 35226 35230 28
28185 35231 35232 28
28186 35231 35233 28
28187 35231 35234 28
28188 35231 35235 28
28189 35236 35237 28
28190 35236 35238 28
28191 35236 35239 28
28192 35236 35240 28
28193 35241 35242 28
28194 35241 35243 28
28195 35241 35244 28
28196 35241 35245 28
28197 35246 35247 28
28198 35246 35248 28
28199 35246 35249 28
28200 35246 35250 28
28201 35251 35252 28
28202 35251 35253 28
28203 35251 35254 28
28204 35251 35255 28
28205 35256 35257 28
28206 35256 35258 28
28207 35256 35259 28
28208 35256 35260 28
28209 35261 35262 28
28210 35261 35263 28
28211 35261 35264 28
28212 35261 35265 28
28213 35266 35267 28
28214 35266 35268 28
28215 35266 35269 28
28216 35266 35270 28
28217 35271 35272 28
28218 35271 35273 28
28219 35271 35274 28
28220 35271 35275 28
28221 35276 35277 28
28222 35276 35278 28
28223 35276 35279 28
28224 35276 35280 28
28225 35281 35282 28
28226 35281 35283 28
28227 35281 35284 28
28228 35281 35285 28
28229 35286 35287 28
28230 35286 35288 28
28231 35286 35289 28
28232 35286 35290 28
28233 35291 35292 28
28234 35291 35293 28
28235 35291 35294 28
28236 35291 35295 28
28237 35296 35297 28
28238 35296 35298 28
28239 35296 35299 28
28240 35296 35300 28
28241 35301 35302 28
28242 35301 35303 28
28243 35301 35304 28
28244 35301 35305 28
28245 35306 35307 28
28246 35306 35308 28
28247 35306 35309 28
28248 35306 35310 28
28249 35311 35312 28
28250 35311 35313 28
28251 35311 35314 28
28252 35311 35315 28
28253 35316 35317 28
28254 35316 35318 28
28255 35316 35319 28
28256 35316 35320 28
28257 35321 35322 28
28258 35321 35323 28
28259 35321 35324 28
28260 35321 35325 28
28261 35326 35327 28
28262 35326 35328 28
28263 35326 35329 28
28264 35326 35330 28
28265 35331 35332 28
28266 35331 35333 28
28267 35331 35334 28
28268 35331 35335 28
28269 35336 35337 28
28270 35336 35338 28
28271 35336 35339 28
28272 35336 35340 28
28273 35341 35342 28
28274 35341 35343 28
28275 35341 35344 28
28276 35341 35345 28
28277 35346 35347 28
28278 35346 35348 28
28279 35346 35349 28
28280 35346 35350 28
28281 35351 35352 28
28282 35351 35353 28
28283 35351 35354 28
28284 35351 35355 28
28285 35356 35357 28
28286 35356 35358 28
28287 35356 35359 28
28288 35356 35360 28
28289 35361 35362 28
28290 35361 35363 28
28291 35361 35364 28
28292 35361 35365 28
28293 35366 35367 28
28294 35366 35368 28
28295 35366 35369 28
28296 35366 35370 28
28297 35371 35372 28
28298 35371 35373 28
28299 35371 35374 28
28300 35371 35375 28
28301 35376 35377 28
28302 35376 35378 28
28303 35376 35379 28
28304 35376 35380 28
28305 35381 35382 28
28306 35381 35383 28
28307 35381 35384 28
28308 35381 35385 28
28309 35386 35387 28
28310 35386 35388 28
28311 35386 35389 28
28312 35386 35390 28
28313 35391 35392 28
28314 35391 35393 28
28315 35391 35394 28
28316 35391 35395 28
28317 35396 35397 28
28318 35396 35398 28
28319 35396 35399 28
28320 35396 35400 28
28321 35401 35402 28
28322 35401 35403 28
28323 35401 35404 28
28324 35401 35405 28
28325 35406 35407 28
28326 35406 35408 28
28327 35406 35409 28
28328 35406 35410 28
28329 35411 35412 28
28330 35411 35413 28
28331 35411 35414 28
28332 35411 35415 28
28333 35416 35417 28
28334 35416 35418 28
28335 35416 35419 28
28336 35416 35420 28
28337 35421 35422 28
28338 35421 35423 28
28339 35421 35424 28
28340 35421 35425 28
28341 35426 35427 28
28342 35426 35428 28
28343 35426 35429 28
28344 35426 35430 28
28345 35431 35432 28
28346 35431 35433 28
28347 35431 35434 28
28348 35431 35435 28
28349 35436 35437 28
28350 35436 35438 28
28351 35436 35439 28
28352 35436 35440 28
28353 35441 35442 28
28354 35441 35443 28
28355 35441 35444 28
28356 35441 35445 28
28357 35446 35447 28
28358 35446 35448 28
28359 35446 35449 28
28360 35446 35450 28
28361 35451 35452 28
28362 35451 35453 28
28363 35451 35454 28
28364 35451 35455 28
28365 35456 35457 28
28366 35456 35458 28
28367 35456 35459 28
28368 35456 35460 28
28369 35461 35462 28
28370 35461 35463 28
28371 35461 35464 28
28372 35461 35465 28
28373 35466 35467 28
28374 35466 35468 28
28375 35466 35469 28
28376 35466 35470 28
28377 35471 35472 28
28378 35471 35473 28
28379 35471 35474 28
28380 35471 35475 28
28381 35476 35477 28
28382 35476 35478 28
28383 35476 35479 28
28384 35476 35480 28
28385 35481 35482 28
28386 35481 35483 28
28387 35481 35484 28
28388 35481 35485 28
28389 35486 35487 28
28390 35486 35488 28
28391 35486 35489 28
28392 35486 35490 28
28393 35491 35492 28
28394 35491 35493 28
28395 35491 35494 28
28396 35491 35495 28
28397 35496 35497 28
28398 35496 35498 28
28399 35496 35499 28
28400 35496 35500 28
28401 35501 35502 28
28402 35501 35503 28
28403 35501 35504 28
28404 35501 35505 28
28405 35506 35507 28
28406 35506 35508 28
28407 35506 35509 28
28408 35506 35510 28
28409 35511 35512 28
28410 35511 35513 28
28411 35511 35514 28
28412 35511 35515 28
28413 35516 35517 28
28414 35516 35518 28
28415 35516 35519 28
28416 35516 35520 28
28417 35521 35522 28
28418 35521 35523 28
28419 35521 35524 28
28420 35521 35525 28
28421 35526 35527 28
28422 35526 35528 28
28423 35526 35529 28
28424 35526 35530 28
28425 35531 35532 28
28426 35531 35533 28
28427 35531 35534 28
28428 35531 35535 28
28429 35536 35537 28
28430 35536 35538 28
28431 35536 35539 28
28432 35536 35540 28
28433 35541 35542 28
28434 35541 35543 28
28435 35541 35544 28
28436 35541 35545 28
28437 35546 35547 28
28438 35546 35548 28
28439 35546 35549 28
28440 35546 35550 28
28441 35551 35552 28
28442 35551 35553 28
28443 35551 35554 28
28444 35551 35555 28
28445 35556 35557 28
28446 35556 35558 28
28447 35556 35559 28
28448 35556 35560 28
28449 35561 35562 28
28450 35561 35563 28
28451 35561 35564 28
28452 35561 35565 28
28453 35566 35567 28
28454 35566 35568 28
28455 35566 35569 28
28456 35566 35570 28
28457 35571 35572 28
28458 35571 35573 28
28459 35571 35574 28
28460 35571 35575 28
28461 35576 35577 28
28462 35576 35578 28
28463 35576 35579 28
28464 35576 35580 28
28465 35581 35582 28
28466 35581 35583 28
28467 35581 35584 28
28468 35581 35585 28
28469 35586 35587 28
28470 35586 35588 28
28471 35586 35589 28
28472 35586 35590 28
28473 35591 35592 28
28474 35591 35593 28
28475 35591 35594 28
28476 35591 35595 28
28477 35596 35597 28
28478 35596 35598 28
28479 35596 35599 28
28480 35596 35600 28
28481 35601 35602 28
28482 35601 35603 28
28483 35601 35604 28
28484 35601 35605 28
28485 35606 35607 28
28486 35606 35608 28
28487 35606 35609 28
28488 35606 35610 28
28489 35611 35612 28
28490 35611 35613 28
28491 35611 35614 28
28492 35611 35615 28
28493 35616 35617 28
28494 35616 35618 28
28495 35616 35619 28
28496 35616 35620 28
28497 35621 35622 28
28498 35621 35623 28
28499 35621 35624 28
28500 35621 35625 28
28501 35626 35627 28
28502 35626 35628 28
28503 35626 35629 28
28504 35626 35630 28
28505 35631 35632 28
28506 35631 35633 28
28507 35631 35634 28
28508 35631 35635 28
28509 35636 35637 28
28510 35636 35638 28
28511 35636 35639 28
28512 35636 35640 28
28513 35641 35642 28
28514 35641 35643 28
28515 35641 35644 28
28516 35641 35645 28
28517 35646 35647 28
28518 35646 35648 28
28519 35646 35649 28
28520 35646 35650 28
28521 35651 35652 28
28522 35651 35653 28
28523 35651 35654 28
28524 35651 35655 28
28525 35656 35657 28
28526 35656 35658 28
28527 35656 35659 28
28528 35656 35660 28
28529 35661 35662 28
28530 35661 35663 28
28531 35661 35664 28
28532 35661 35665 28
28533 35666 35667 28
28534 35666 35668 28
28535 35666 35669 28
28536 35666 35670 28
28537 35671 35672 28
28538 35671 35673 28
28539 35671 35674 28
28540 35671 35675 28
28541 35676 35677 28
28542 35676 35678 28
28543 35676 35679 28
28544 35676 35680 28
28545 35681 35682 28
28546 35681 35683 28
28547 35681 35684 28
28548 35681 35685 28
28549 35686 35687 28
28550 35686 35688 28
28551 35686 35689 28
28552 35686 35690 28
28553 35691 35692 28
28554 35691 35693 28
28555 35691 35694 28
28556 35691 35695 28
28557 35696 35697 28
28558 35696 35698 28
28559 35696 35699 28
28560 35696 35700 28
28561 35701 35702 28
28562 35701 35703 28
28563 35701 35704 28
28564 35701 35705 28
28565 35706 35707 28
28566 35706 35708 28
28567 35706 35709 28
28568 35706 35710 28
28569 35711 35712 28
28570 35711 35713 28
28571 35711 35714 28
28572 35711 35715 28
28573 35716 35717 28
28574 35716 35718 28
28575 35716 35719 28
28576 35716 35720 28
28577 35721 35722 28
28578 35721 35723 28
28579 35721 35724 28
28580 35721 35725 28
28581 35726 35727 28
28582 35726 35728 28
28583 35726 35729 28
28584 35726 35730 28
28585 35731 35732 28
28586 35731 35733 28
28587 35731 35734 28
28588 35731 35735 28
28589 35736 35737 28
28590 35736 35738 28
28591 35736 35739 28
28592 35736 35740 28
28593 35741 35742 28
28594 35741 35743 28
28595 35741 35744 28
28596 35741 35745 28
28597 35746 35747 28
28598 35746 35748 28
28599 35746 35749 28
28600 35746 35750 28
28601 35751 35752 28
28602 35751 35753 28
28603 35751 35754 28
28604 35751 35755 28
28605 35756 35757 28
28606 35756 35758 28
28607 35756 35759 28
28608 35756 35760 28
28609 35761 35762 28
28610 35761 35763 28
28611 35761 35764 28
28612 35761 35765 28
28613 35766 35767 28
28614 35766 35768 28
28615 35766 35769 28
28616 35766 35770 28
28617 35771 35772 28
28618 35771 35773 28
28619 35771 35774 28
28620 35771 35775 28
28621 35776 35777 28
28622 35776 35778 28
28623 35776 35779 28
28624 35776 35780 28
28625 35781 35782 28
28626 35781 35783 28
28627 35781 35784 28
28628 35781 35785 28
28629 35786 35787 28
28630 35786 35788 28
28631 35786 35789 28
28632 35786 35790 28
28633 35791 35792 28
28634 35791 35793 28
28635 35791 35794 28
28636 35791 35795 28
28637 35796 35797 28
28638 35796 35798 28
28639 35796 35799 28
28640 35796 35800 28
28641 35801 35802 28
28642 35801 35803 28
28643 35801 35804 28
28644 35801 35805 28
28645 35806 35807 28
28646 35806 35808 28
28647 35806 35809 28
28648 35806 35810 28
28649 35811 35812 28
28650 35811 35813 28
28651 35811 35814 28
28652 35811 35815 28
28653 35816 35817 28
28654 35816 35818 28
28655 35816 35819 28
28656 35816 35820 28
28657 35821 35822 28
28658 35821 35823 28
28659 35821 35824 28
28660 35821 35825 28
28661 35826 35827 28
28662 35826 35828 28
28663 35826 35829 28
28664 35826 35830 28
28665 35831 35832 28
28666 35831 35833 28
28667 35831 35834 28
28668 35831 35835 28
28669 35836 35837 28
28670 35836 35838 28
28671 35836 35839 28
28672 35836 35840 28
28673 35841 35842 28
28674 35841 35843 28
28675 35841 35844 28
28676 35841 35845 28
28677 35846 35847 28
28678 35846 35848 28
28679 35846 35849 28
28680 35846 35850 28
28681 35851 35852 28
28682 35851 35853 28
28683 35851 35854 28
28684 35851 35855 28
28685 35856 35857 28
28686 35856 35858 28
28687 35856 35859 28
28688 35856 35860 28
28689 35861 35862 28
28690 35861 35863 28
28691 35861 35864 28
28692 35861 35865 28
28693 35866 35867 28
28694 35866 35868 28
28695 35866 35869 28
28696 35866 35870 28
28697 35871 35872 28
28698 35871 35873 28
28699 35871 35874 28
28700 35871 35875 28
28701 35876 35877 28
28702 35876 35878 28
28703 35876 35879 28
28704 35876 35880 28
28705 35881 35882 28
28706 35881 35883 28
28707 35881 35884 28
28708 35881 35885 28
28709 35886 35887 28
28710 35886 35888 28
28711 35886 35889 28
28712 35886 35890 28
28713 35891 35892 28
28714 35891 35893 28
28715 35891 35894 28
28716 35891 35895 28
28717 35896 35897 28
28718 35896 35898 28
28719 35896 35899 28
28720 35896 35900 28
28721 35901 35902 28
28722 35901 35903 28
28723 35901 35904 28
28724 35901 35905 28
28725 35906 35907 28
28726 35906 35908 28
28727 35906 35909 28
28728 35906 35910 28
28729 35911 35912 28
28730 35911 35913 28
28731 35911 35914 28
28732 35911 35915 28
28733 35916 35917 28
28734 35916 35918 28
28735 35916 35919 28
28736 35916 35920 28
28737 35921 35922 28
28738 35921 35923 28
28739 35921 35924 28
28740 35921 35925 28
28741 35926 35927 28
28742 35926 35928 28
28743 35926 35929 28
28744 35926 35930 28
28745 35931 35932 28
28746 35931 35933 28
28747 35931 35934 28
28748 35931 35935 28
28749 35936 35937 28
28750 35936 35938 28
28751 35936 35939 28
28752 35936 35940 28
28753 35941 35942 28
28754 35941 35943 28
28755 35941 35944 28
28756 35941 35945 28
28757 35946 35947 28
28758 35946 35948 28
28759 35946 35949 28
28760 35946 35950 28
28761 35951 35952 28
28762 35951 35953 28
28763 35951 35954 28
28764 35951 35955 28
28765 35956 35957 28
28766 35956 35958 28
28767 35956 35959 28
28768 35956 35960 28
28769 35961 35962 28
28770 35961 35963 28
28771 35961 35964 28
28772 35961 35965 28
28773 35966 35967 28
28774 35966 35968 28
28775 35966 35969 28
28776 35966 35970 28
28777 35971 35972 28
28778 35971 35973 28
28779 35971 35974 28
28780 35971 35975 28
28781 35976 35977 28
28782 35976 35978 28
28783 35976 35979 28
28784 35976 35980 28
28785 35981 35982 28
28786 35981 35983 28
28787 35981 35984 28
28788 35981 35985 28
28789 35986 35987 28
28790 35986 35988 28
28791 35986 35989 28
28792 35986 35990 28
28793 35991 35992 28
28794 35991 35993 28
28795 35991 35994 28
28796 35991 35995 28
28797 35996 35997 28
28798 35996 35998 28
28799 35996 35999 28
28800 35996 36000 28
28801 36001 36002 28
28802 36001 36003 28
28803 36001 36004 28
28804 36001 36005 28
28805 36006 36007 28
28806 36006 36008 28
28807 36006 36009 28
28808 36006 36010 28
28809 36011 36012 28
28810 36011 36013 28
28811 36011 36014 28
28812 36011 36015 28
28813 36016 36017 28
28814 36016 36018 28
28815 36016 36019 28
28816 36016 36020 28
28817 36021 36022 28
28818 36021 36023 28
28819 36021 36024 28
28820 36021 36025 28
28821 36026 36027 28
28822 36026 36028 28
28823 36026 36029 28
28824 36026 36030 28
28825 36031 36032 28
28826 36031 36033 28
28827 36031 36034 28
28828 36031 36035 28
28829 36036 36037 28
28830 36036 36038 28
28831 36036 36039 28
28832 36036 36040 28
28833 36041 36042 28
28834 36041 36043 28
28835 36041 36044 28
28836 36041 36045 28
28837 36046 36047 28
28838 36046 36048 28
28839 36046 36049 28
28840 36046 36050 28
28841 36051 36052 28
28842 36051 36053 28
28843 36051 36054 28
28844 36051 36055 28
28845 36056 36057 28
28846 36056 36058 28
28847 36056 36059 28
28848 36056 36060 28
28849 36061 36062 28
28850 36061 36063 28
28851 36061 36064 28
28852 36061 36065 28
28853 36066 36067 28
28854 36066 36068 28
28855 36066 36069 28
28856 36066 36070 28
28857 36071 36072 28
28858 36071 36073 28
28859 36071 36074 28
28860 36071 36075 28
28861 36076 36077 28
28862 36076 36078 28
28863 36076 36079 28
28864 36076 36080 28
28865 36081 36082 28
28866 36081 36083 28
28867 36081 36084 28
28868 36081 36085 28
28869 36086 36087 28
28870 36086 36088 28
28871 36086 36089 28
28872 36086 36090 28
28873 36091 36092 28
28874 36091 36093 28
28875 36091 36094 28
28876 36091 36095 28
28877 36096 36097 28
28878 36096 36098 28
28879 36096 36099 28
28880 36096 36100 28
28881 36101 36102 28
28882 36101 36103 28
28883 36101 36104 28
28884 36101 36105 28
28885 36106 36107 28
28886 36106 36108 28
28887 36106 36109 28
28888 36106 36110 28
28889 36111 36112 28
28890 36111 36113 28
28891 36111 36114 28
28892 36111 36115 28
28893 36116 36117 28
28894 36116 36118 28
28895 36116 36119 28
28896 36116 36120 28
28897 36121 36122 28
28898 36121 36123 28
28899 36121 36124 28
28900 36121 36125 28
28901 36126 36127 28
28902 36126 36128 28
28903 36126 36129 28
28904 36126 36130 28
28905 36131 36132 28
28906 36131 36133 28
28907 36131 36134 28
28908 36131 36135 28
28909 36136 36137 28
28910 36136 36138 28
28911 36136 36139 28
28912 36136 36140 28
28913 36141 36142 28
28914 36141 36143 28
28915 36141 36144 28
28916 36141 36145 28
28917 36146 36147 28
28918 36146 36148 28
28919 36146 36149 28
28920 36146 36150 28
28921 36151 36152 28
28922 36151 36153 28
28923 36151 36154 28
28924 36151 36155 28
28925 36156 36157 28
28926 36156 36158 28
28927 36156 36159 28
28928 36156 36160 28
28929 36161 36162 28
28930 36161 36163 28
28931 36161 36164 28
28932 36161 36165 28
28933 36166 36167 28
28934 36166 36168 28
28935 36166 36169 28
28936 36166 36170 28
28937 36171 36172 28
28938 36171 36173 28
28939 36171 36174 28
28940 36171 36175 28
28941 36176 36177 28
28942 36176 36178 28
28943 36176 36179 28
28944 36176 36180 28
28945 36181 36182 28
28946 36181 36183 28
28947 36181 36184 28
28948 36181 36185 28
28949 36186 36187 28
28950 36186 36188 28
28951 36186 36189 28
28952 36186 36190 28
28953 36191 36192 28
28954 36191 36193 28
28955 36191 36194 28
28956 36191 36195 28
28957 36196 36197 28
28958 36196 36198 28
28959 36196 36199 28
28960 36196 36200 28
28961 36201 36202 28
28962 36201 36203 28
28963 36201 36204 28
28964 36201 36205 28
28965 36206 36207 28
28966 36206 36208 28
28967 36206 36209 28
28968 36206 36210 28
28969 36211 36212 28
28970 36211 36213 28
28971 36211 36214 28
28972 36211 36215 28
28973 36216 36217 28
28974 36216 36218 28
28975 36216 36219 28
28976 36216 36220 28
28977 36221 36222 28
28978 36221 36223 28
28979 36221 36224 28
28980 36221 36225 28
28981 36226 36227 28
28982 36226 36228 28
28983 36226 36229 28
28984 36226 36230 28
28985 36231 36232 28
28986 36231 36233 28
28987 36231 36234 28
28988 36231 36235 28
28989 36236 36237 28
28990 36236 36238 28
28991 36236 36239 28
28992 36236 36240 28
28993 36241 36242 28
28994 36241 36243 28
28995 36241 36244 28
28996 36241 36245 28
28997 36246 36247 28
28998 36246 36248 28
28999 36246 36249 28
29000 36246 36250 28
29001 36251 36252 28
29002 36251 36253 28
29003 36251 36254 28
29004 36251 36255 28
29005 36256 36257 28
29006 36256 36258 28
29007 36256 36259 28
29008 36256 36260 28
29009 36261 36262 28
29010 36261 36263 28
29011 36261 36264 28
29012 36261 36265 28
29013 36266 36267 28
29014 36266 36268 28
29015 36266 36269 28
29016 36266 36270 28
29017 36271 36272 28
29018 36271 36273 28
29019 36271 36274 28
29020 36271 36275 28
29021 36276 36277 28
29022 36276 36278 28
29023 36276 36279 28
29024 36276 36280 28
29025 36281 36282 28
29026 36281 36283 28
29027 36281 36284 28
29028 36281 36285 28
29029 36286 36287 28
29030 36286 36288 28
29031 36286 36289 28
29032 36286 36290 28
29033 36291 36292 28
29034 36291 36293 28
29035 36291 36294 28
29036 36291 36295 28
29037 36296 36297 28
29038 36296 36298 28
29039 36296 36299 28
29040 36296 36300 28
29041 36301 36302 28
29042 36301 36303 28
29043 36301 36304 28
29044 36301 36305 28
29045 36306 36307 28
29046 36306 36308 28
29047 36306 36309 28
29048 36306 36310 28
29049 36311 36312 28
29050 36311 36313 28
29051 36311 36314 28
29052 36311 36315 28
29053 36316 36317 28
29054 36316 36318 28
29055 36316 36319 28
29056 36316 36320 28
29057 36321 36322 28
29058 36321 36323 28
29059 36321 36324 28
29060 36321 36325 28
29061 36326 36327 28
29062 36326 36328 28
29063 36326 36329 28
29064 36326 36330 28
29065 36331 36332 28
29066 36331 36333 28
29067 36331 36334 28
29068 36331 36335 28
29069 36336 36337 28
29070 36336 36338 28
29071 36336 36339 28
29072 36336 36340 28
29073 36341 36342 28
29074 36341 36343 28
29075 36341 36344 28
29076 36341 36345 28
29077 36346 36347 28
29078 36346 36348 28
29079 36346 36349 28
29080 36346 36350 28
29081 36351 36352 28
29082 36351 36353 28
29083 36351 36354 28
29084 36351 36355 28
29085 36356 36357 28
29086 36356 36358 28
29087 36356 36359 28
29088 36356 36360 28
29089 36361 36362 28
29090 36361 36363 28
29091 36361 36364 28
29092 36361 36365 28
29093 36366 36367 28
29094 36366 36368 28
29095 36366 36369 28
29096 36366 36370 28
29097 36371 36372 28
29098 36371 36373 28
29099 36371 36374 28
29100 36371 36375 28
29101 36376 36377 28
29102 36376 36378 28
29103 36376 36379 28
29104 36376 36380 28
29105 36381 36382 28
29106 36381 36383 28
29107 36381 36384 28
29108 36381 36385 28
29109 36386 36387 28
29110 36386 36388 28
29111 36386 36389 28
29112 36386 36390 28
29113 36391 36392 28
29114 36391 36393 28
29115 36391 36394 28
29116 36391 36395 28
29117 36396 36397 28
29118 36396 36398 28
29119 36396 36399 28
29120 36396 36400 28
29121 36401 36402 28
29122 36401 36403 28
29123 36401 36404 28
29124 36401 36405 28
29125 36406 36407 28
29126 36406 36408 28
29127 36406 36409 28
29128 36406 36410 28
29129 36411 36412 28
29130 36411 36413 28
29131 36411 36414 28
29132 36411 36415 28
29133 36416 36417 28
29134 36416 36418 28
29135 36416 36419 28
29136 36416 36420 28
29137 36421 36422 28
29138 36421 36423 28
29139 36421 36424 28
29140 36421 36425 28
29141 36426 36427 28
29142 36426 36428 28
29143 36426 36429 28
29144 36426 36430 28
29145 36431 36432 28
29146 36431 36433 28
29147 36431 36434 28
29148 36431 36435 28
29149 36436 36437 28
29150 36436 36438 28
29151 36436 36439 28
29152 36436 36440 28
29153 36441 36442 28
29154 36441 36443 28
29155 36441 36444 28
29156 36441 36445 28
29157 36446 36447 28
29158 36446 36448 28
29159 36446 36449 28
29160 36446 36450 28
29161 36451 36452 28
29162 36451 36453 28
29163 36451 36454 28
29164 36451 36455 28
29165 36456 36457 28
29166 36456 36458 28
29167 36456 36459 28
29168 36456 36460 28
29169 36461 36462 28
29170 36461 36463 28
29171 36461 36464 28
29172 36461 36465 28
29173 36466 36467 28
29174 36466 36468 28
29175 36466 36469 28
29176 36466 36470 28
29177 36471 36472 28
29178 36471 36473 28
29179 36471 36474 28
29180 36471 36475 28
29181 36476 36477 28
29182 36476 36478 28
29183 36476 36479 28
29184 36476 36480 28
29185 36481 36482 28
29186 36481 36483 28
29187 36481 36484 28
29188 36481 36485 28
29189 36486 36487 28
29190 36486 36488 28
29191 36486 36489 28
29192 36486 36490 28
29193 36491 36492 28
29194 36491 36493 28
29195 36491 36494 28
29196 36491 36495 28
29197 36496 36497 28
29198 36496 36498 28
29199 36496 36499 28
29200 36496 36500 28
29201 36501 36502 28
29202 36501 36503 28
29203 36501 36504 28
29204 36501 36505 28
29205 36506 36507 28
29206 36506 36508 28
29207 36506 36509 28
29208 36506 36510 28
29209 36511 36512 28
29210 36511 36513 28
29211 36511 36514 28
29212 36511 36515 28
29213 36516 36517 28
29214 36516 36518 28
29215 36516 36519 28
29216 36516 36520 28
29217 36521 36522 28
29218 36521 36523 28
29219 36521 36524 28
29220 36521 36525 28
29221 36526 36527 28
29222 36526 36528 28
29223 36526 36529 28
29224 36526 36530 28
29225 36531 36532 28
29226 36531 36533 28
29227 36531 36534 28
29228 36531 36535 28
29229 36536 36537 28
29230 36536 36538 28
29231 36536 36539 28
29232 36536 36540 28
29233 36541 36542 28
29234 36541 36543 28
29235 36541 36544 28
29236 36541 36545 28
29237 36546 36547 28
29238 36546 36548 28
29239 36546 36549 28
29240 36546 36550 28
29241 36551 36552 28
29242 36551 36553 28
29243 36551 36554 28
29244 36551 36555 28
29245 36556 36557 28
29246 36556 36558 28
29247 36556 36559 28
29248 36556 36560 28
29249 36561 36562 28
29250 36561 36563 28
29251 36561 36564 28
29252 36561 36565 28
29253 36566 36567 28
29254 36566 36568 28
29255 36566 36569 28
29256 36566 36570 28
29257 36571 36572 28
29258 36571 36573 28
29259 36571 36574 28
29260 36571 36575 28
29261 36576 36577 28
29262 36576 36578 28
29263 36576 36579 28
29264 36576 36580 28
29265 36581 36582 28
29266 36581 36583 28
29267 36581 36584 28
29268 36581 36585 28
29269 36586 36587 28
29270 36586 36588 28
29271 36586 36589 28
29272 36586 36590 28
29273 36591 36592 28
29274 36591 36593 28
29275 36591 36594 28
29276 36591 36595 28
29277 36596 36597 28
29278 36596 36598 28
29279 36596 36599 28
29280 36596 36600 28
29281 36601 36602 28
29282 36601 36603 28
29283 36601 36604 28
29284 36601 36605 28
29285 36606 36607 28
29286 36606 36608 28
29287 36606 36609 28
29288 36606 36610 28
29289 36611 36612 28
29290 36611 36613 28
29291 36611 36614 28
29292 36611 36615 28
29293 36616 36617 28
29294 36616 36618 28
29295 36616 36619 28
29296 36616 36620 28
29297 36621 36622 28
29298 36621 36623 28
29299 36621 36624 28
29300 36621 36625 28
29301 36626 36627 28
29302 36626 36628 28
29303 36626 36629 28
29304 36626 36630 28
29305 36631 36632 28
29306 36631 36633 28
29307 36631 36634 28
29308 36631 36635 28
29309 36636 36637 28
29310 36636 36638 28
29311 36636 36639 28
29312 36636 36640 28
29313 36641 36642 28
29314 36641 36643 28
29315 36641 36644 28
29316 36641 36645 28
29317 36646 36647 28
29318 36646 36648 28
29319 36646 36649 28
29320 36646 36650 28
29321 36651 36652 28
29322 36651 36653 28
29323 36651 36654 28
29324 36651 36655 28
29325 36656 36657 28
29326 36656 36658 28
29327 36656 36659 28
29328 36656 36660 28
29329 36661 36662 28
29330 36661 36663 28
29331 36661 36664 28
29332 36661 36665 28
29333 36666 36667 28
29334 36666 36668 28
29335 36666 36669 28
29336 36666 36670 28
29337 36671 36672 28
29338 36671 36673 28
29339 36671 36674 28
29340 36671 36675 28
29341 36676 36677 28
29342 36676 36678 28
29343 36676 36679 28
29344 36676 36680 28
29345 36681 36682 28
29346 36681 36683 28
29347 36681 36684 28
29348 36681 36685 28
29349 36686 36687 28
29350 36686 36688 28
29351 36686 36689 28
29352 36686 36690 28
29353 36691 36692 28
29354 36691 36693 28
29355 36691 36694 28
29356 36691 36695 28
29357 36696 36697 28
29358 36696 36698 28
29359 36696 36699 28
29360 36696 36700 28
29361 36701 36702 28
29362 36701 36703 28
29363 36701 36704 28
29364 36701 36705 28
29365 36706 36707 28
29366 36706 36708 28
29367 36706 36709 28
29368 36706 36710 28
29369 36711 36712 28
29370 36711 36713 28
29371 36711 36714 28
29372 36711 36715 28
29373 36716 36717 28
29374 36716 36718 28
29375 36716 36719 28
29376 36716 36720 28
29377 36721 36722 28
29378 36721 36723 28
29379 36721 36724 28
29380 36721 36725 28
29381 36726 36727 28
29382 36726 36728 28
29383 36726 36729 28
29384 36726 36730 28
29385 36731 36732 28
29386 36731 36733 28
29387 36731 36734 28
29388 36731 36735 28
29389 36736 36737 28
29390 36736 36738 28
29391 36736 36739 28
29392 36736 36740 28
29393 36741 36742 28
29394 36741 36743 28
29395 36741 36744 28
29396 36741 36745 28
29397 36746 36747 28
29398 36746 36748 28
29399 36746 36749 28
29400 36746 36750 28
29401 36751 36752 28
29402 36751 36753 28
29403 36751 36754 28
29404 36751 36755 28
29405 36756 36757 28
29406 36756 36758 28
29407 36756 36759 28
29408 36756 36760 28
29409 36761 36762 28
29410 36761 36763 28
29411 36761 36764 28
29412 36761 36765 28
29413 36766 36767 28
29414 36766 36768 28
29415 36766 36769 28
29416 36766 36770 28
29417 36771 36772 28
29418 36771 36773 28
29419 36771 36774 28
29420 36771 36775 28
29421 36776 36777 28
29422 36776 36778 28
29423 36776 36779 28
29424 36776 36780 28
29425 36781 36782 28
29426 36781 36783 28
29427 36781 36784 28
29428 36781 36785 28
29429 36786 36787 28
29430 36786 36788 28
29431 36786 36789 28
29432 36786 36790 28
29433 36791 36792 28
29434 36791 36793 28
29435 36791 36794 28
29436 36791 36795 28
29437 36796 36797 28
29438 36796 36798 28
29439 36796 36799 28
29440 36796 36800 28
29441 36801 36802 28
29442 36801 36803 28
29443 36801 36804 28
29444 36801 36805 28
29445 36806 36807 28
29446 36806 36808 28
29447 36806 36809 28
29448 36806 36810 28
29449 36811 36812 28
29450 36811 36813 28
29451 36811 36814 28
29452 36811 36815 28
29453 36816 36817 28
29454 36816 36818 28
29455 36816 36819 28
29456 36816 36820 28
29457 36821 36822 28
29458 36821 36823 28
29459 36821 36824 28
29460 36821 36825 28
29461 36826 36827 28
29462 36826 36828 28
29463 36826 36829 28
29464 36826 36830 28
29465 36831 36832 28
29466 36831 36833 28
29467 36831 36834 28
29468 36831 36835 28
29469 36836 36837 28
29470 36836 36838 28
29471 36836 36839 28
29472 36836 36840 28
29473 36841 36842 28
29474 36841 36843 28
29475 36841 36844 28
29476 36841 36845 28
29477 36846 36847 28
29478 36846 36848 28
29479 36846 36849 28
29480 36846 36850 28
29481 36851 36852 28
29482 36851 36853 28
29483 36851 36854 28
29484 36851 36855 28
29485 36856 36857 28
29486 36856 36858 28
29487 36856 36859 28
29488 36856 36860 28
29489 36861 36862 28
29490 36861 36863 28
29491 36861 36864 28
29492 36861 36865 28
29493 36866 36867 28
29494 36866 36868 28
29495 36866 36869 28
29496 36866 36870 28
29497 36871 36872 28
29498 36871 36873 28
29499 36871 36874 28
29500 36871 36875 28
29501 36876 36877 28
29502 36876 36878 28
29503 36876 36879 28
29504 36876 36880 28
29505 36881 36882 28
29506 36881 36883 28
29507 36881 36884 28
29508 36881 36885 28
29509 36886 36887 28
29510 36886 36888 28
29511 36886 36889 28
29512 36886 36890 28
29513 36891 36892 28
29514 36891 36893 28
29515 36891 36894 28
29516 36891 36895 28
29517 36896 36897 28
29518 36896 36898 28
29519 36896 36899 28
29520 36896 36900 28
29521 36901 36902 28
29522 36901 36903 28
29523 36901 36904 28
29524 36901 36905 28
29525 36906 36907 28
29526 36906 36908 28
29527 36906 36909 28
29528 36906 36910 28
29529 36911 36912 28
29530 36911 36913 28
29531 36911 36914 28
29532 36911 36915 28
29533 36916 36917 28
29534 36916 36918 28
29535 36916 36919 28
29536 36916 36920 28
29537 36921 36922 28
29538 36921 36923 28
29539 36921 36924 28
29540 36921 36925 28
29541 36926 36927 28
29542 36926 36928 28
29543 36926 36929 28
29544 36926 36930 28
29545 36931 36932 28
29546 36931 36933 28
29547 36931 36934 28
29548 36931 36935 28
29549 36936 36937 28
29550 36936 36938 28
29551 36936 36939 28
29552 36936 36940 28
29553 36941 36942 28
29554 36941 36943 28
29555 36941 36944 28
29556 36941 36945 28
29557 36946 36947 28
29558 36946 36948 28
29559 36946 36949 28
29560 36946 36950 28
29561 36951 36952 28
29562 36951 36953 28
29563 36951 36954 28
29564 36951 36955 28
29565 36956 36957 28
29566 36956 36958 28
29567 36956 36959 28
29568 36956 36960 28
29569 36961 36962 28
29570 36961 36963 28
29571 36961 36964 28
29572 36961 36965 28
29573 36966 36967 28
29574 36966 36968 28
29575 36966 36969 28
29576 36966 36970 28
29577 36971 36972 28
29578 36971 36973 28
29579 36971 36974 28
29580 36971 36975 28
29581 36976 36977 28
29582 36976 36978 28
29583 36976 36979 28
29584 36976 36980 28
29585 36981 36982 28
29586 36981 36983 28
29587 36981 36984 28
29588 36981 36985 28
29589 36986 36987 28
29590 36986 36988 28
29591 36986 36989 28
29592 36986 36990 28
29593 36991 36992 28
29594 36991 36993 28
29595 36991 36994 28
29596 36991 36995 28
29597 36996 36997 28
29598 36996 36998 28
29599 36996 36999 28
29600 36996 37000 28
29601 37001 37002 28
29602 37001 37003 28
29603 37001 37004 28
29604 37001 37005 28
29605 37006 37007 28
29606 37006 37008 28
29607 37006 37009 28
29608 37006 37010 28
29609 37011 37012 28
29610 37011 37013 28
29611 37011 37014 28
29612 37011 37015 28
29613 37016 37017 28
29614 37016 37018 28
29615 37016 37019 28
29616 37016 37020 28
29617 37021 37022 28
29618 37021 37023 28
29619 37021 37024 28
29620 37021 37025 28
29621 37026 37027 28
29622 37026 37028 28
29623 37026 37029 28
29624 37026 37030 28
29625 37031 37032 28
29626 37031 37033 28
29627 37031 37034 28
29628 37031 37035 28
29629 37036 37037 28
29630 37036 37038 28
29631 37036 37039 28
29632 37036 37040 28
29633 37041 37042 28
29634 37041 37043 28
29635 37041 37044 28
29636 37041 37045 28
29637 37046 37047 28
29638 37046 37048 28
29639 37046 37049 28
29640 37046 37050 28
29641 37051 37052 28
29642 37051 37053 28
29643 37051 37054 28
29644 37051 37055 28
29645 37056 37057 28
29646 37056 37058 28
29647 37056 37059 28
29648 37056 37060 28
29649 37061 37062 28
29650 37061 37063 28
29651 37061 37064 28
29652 37061 37065 28
29653 37066 37067 28
29654 37066 37068 28
29655 37066 37069 28
29656 37066 37070 28
29657 37071 37072 28
29658 37071 37073 28
29659 37071 37074 28
29660 37071 37075 28
29661 37076 37077 28
29662 37076 37078 28
29663 37076 37079 28
29664 37076 37080 28
29665 37081 37082 28
29666 37081 37083 28
29667 37081 37084 28
29668 37081 37085 28
29669 37086 37087 28
29670 37086 37088 28
29671 37086 37089 28
29672 37086 37090 28
29673 37091 37092 28
29674 37091 37093 28
29675 37091 37094 28
29676 37091 37095 28
29677 37096 37097 28
29678 37096 37098 28
29679 37096 37099 28
29680 37096 37100 28
29681 37101 37102 28
29682 37101 37103 28
29683 37101 37104 28
29684 37101 37105 28
29685 37106 37107 28
29686 37106 37108 28
29687 37106 37109 28
29688 37106 37110 28
29689 37111 37112 28
29690 37111 37113 28
29691 37111 37114 28
29692 37111 37115 28
29693 37116 37117 28
29694 37116 37118 28
29695 37116 37119 28
29696 37116 37120 28
29697 37121 37122 28
29698 37121 37123 28
29699 37121 37124 28
29700 37121 37125 28
29701 37126 37127 28
29702 37126 37128 28
29703 37126 37129 28
29704 37126 37130 28
29705 37131 37132 28
29706 37131 37133 28
29707 37131 37134 28
29708 37131 37135 28
29709 37136 37137 28
29710 37136 37138 28
29711 37136 37139 28
29712 37136 37140 28
29713 37141 37142 28
29714 37141 37143 28
29715 37141 37144 28
29716 37141 37145 28
29717 37146 37147 28
29718 37146 37148 28
29719 37146 37149 28
29720 37146 37150 28
29721 37151 37152 28
29722 37151 37153 28
29723 37151 37154 28
29724 37151 37155 28
29725 37156 37157 28
29726 37156 37158 28
29727 37156 37159 28
29728 37156 37160 28
29729 37161 37162 28
29730 37161 37163 28
29731 37161 37164 28
29732 37161 37165 28
29733 37166 37167 28
29734 37166 37168 28
29735 37166 37169 28
29736 37166 37170 28
29737 37171 37172 28
29738 37171 37173 28
29739 37171 37174 28
29740 37171 37175 28
29741 37176 37177 28
29742 37176 37178 28
29743 37176 37179 28
29744 37176 37180 28
29745 37181 37182 28
29746 37181 37183 28
29747 37181 37184 28
29748 37181 37185 28
29749 37186 37187 28
29750 37186 37188 28
29751 37186 37189 28
29752 37186 37190 28
29753 37191 37192 28
29754 37191 37193 28
29755 37191 37194 28
29756 37191 37195 28
29757 37196 37197 28
29758 37196 37198 28
29759 37196 37199 28
29760 37196 37200 28
29761 37201 37202 28
29762 37201 37203 28
29763 37201 37204 28
29764 37201 37205 28
29765 37206 37207 28
29766 37206 37208 28
29767 37206 37209 28
29768 37206 37210 28
29769 37211 37212 28
29770 37211 37213 28
29771 37211 37214 28
29772 37211 37215 28
29773 37216 37217 28
29774 37216 37218 28
29775 37216 37219 28
29776 37216 37220 28
29777 37221 37222 28
29778 37221 37223 28
29779 37221 37224 28
29780 37221 37225 28
29781 37226 37227 28
29782 37226 37228 28
29783 37226 37229 28
29784 37226 37230 28
29785 37231 37232 28
29786 37231 37233 28
29787 37231 37234 28
29788 37231 37235 28
29789 37236 37237 28
29790 37236 37238 28
29791 37236 37239 28
29792 37236 37240 28
29793 37241 37242 28
29794 37241 37243 28
29795 37241 37244 28
29796 37241 37245 28
29797 37246 37247 28
29798 37246 37248 28
29799 37246 37249 28
29800 37246 37250 28
29801 37251 37252 28
29802 37251 37253 28
29803 37251 37254 28
29804 37251 37255 28
29805 37256 37257 28
29806 37256 37258 28
29807 37256 37259 28
29808 37256 37260 28
29809 37261 37262 28
29810 37261 37263 28
29811 37261 37264 28
29812 37261 37265 28
29813 37266 37267 28
29814 37266 37268 28
29815 37266 37269 28
29816 37266 37270 28
29817 37271 37272 28
29818 37271 37273 28
29819 37271 37274 28
29820 37271 37275 28
29821 37276 37277 28
29822 37276 37278 28
29823 37276 37279 28
29824 37276 37280 28
29825 37281 37282 28
29826 37281 37283 28
29827 37281 37284 28
29828 37281 37285 28
29829 37286 37287 28
29830 37286 37288 28
29831 37286 37289 28
29832 37286 37290 28
29833 37291 37292 28
29834 37291 37293 28
29835 37291 37294 28
29836 37291 37295 28
29837 37296 37297 28
29838 37296 37298 28
29839 37296 37299 28
29840 37296 37300 28
29841 37301 37302 28
29842 37301 37303 28
29843 37301 37304 28
29844 37301 37305 28
29845 37306 37307 28
29846 37306 37308 28
29847 37306 37309 28
29848 37306 37310 28
29849 37311 37312 28
29850 37311 37313 28
29851 37311 37314 28
29852 37311 37315 28
29853 37316 37317 28
29854 37316 37318 28
29855 37316 37319 28
29856 37316 37320 28
29857 37321 37322 28
29858 37321 37323 28
29859 37321 37324 28
29860 37321 37325 28
29861 37326 37327 28
29862 37326 37328 28
29863 37326 37329 28
29864 37326 37330 28
29865 37331 37332 28
29866 37331 37333 28
29867 37331 37334 28
29868 37331 37335 28
29869 37336 37337 28
29870 37336 37338 28
29871 37336 37339 28
29872 37336 37340 28
29873 37341 37342 28
29874 37341 37343 28
29875 37341 37344 28
29876 37341 37345 28
29877 37346 37347 28
29878 37346 37348 28
29879 37346 37349 28
29880 37346 37350 28
29881 37351 37352 28
29882 37351 37353 28
29883 37351 37354 28
29884 37351 37355 28
29885 37356 37357 28
29886 37356 37358 28
29887 37356 37359 28
29888 37356 37360 28
29889 37361 37362 28
29890 37361 37363 28
29891 37361 37364 28
29892 37361 37365 28
29893 37366 37367 28
29894 37366 37368 28
29895 37366 37369 28
29896 37366 37370 28
29897 37371 37372 28
29898 37371 37373 28
29899 37371 37374 28
29900 37371 37375 28
29901 37376 37377 28
29902 37376 37378 28
29903 37376 37379 28
29904 37376 37380 28
29905 37381 37382 28
29906 37381 37383 28
29907 37381 37384 28
29908 37381 37385 28
29909 37386 37387 28
29910 37386 37388 28
29911 37386 37389 28
29912 37386 37390 28
29913 37391 37392 28
29914 37391 37393 28
29915 37391 37394 28
29916 37391 37395 28
29917 37396 37397 28
29918 37396 37398 28
29919 37396 37399 28
29920 37396 37400 28
29921 37401 37402 28
29922 37401 37403 28
29923 37401 37404 28
29924 37401 37405 28
29925 37406 37407 28
29926 37406 37408 28
29927 37406 37409 28
29928 37406 37410 28
29929 37411 37412 28
29930 37411 37413 28
29931 37411 37414 28
29932 37411 37415 28
29933 37416 37417 28
29934 37416 37418 28
29935 37416 37419 28
29936 37416 37420 28
29937 37421 37422 28
29938 37421 37423 28
29939 37421 37424 28
29940 37421 37425 28
29941 37426 37427 28
29942 37426 37428 28
29943 37426 37429 28
29944 37426 37430 28
29945 37431 37432 28
29946 37431 37433 28
29947 37431 37434 28
29948 37431 37435 28
29949 37436 37437 28
29950 37436 37438 28
29951 37436 37439 28
29952 37436 37440 28
29953 37441 37442 28
29954 37441 37443 28
29955 37441 37444 28
29956 37441 37445 28
29957 37446 37447 28
29958 37446 37448 28
29959 37446 37449 28
29960 37446 37450 28
29961 37451 37452 28
29962 37451 37453 28
29963 37451 37454 28
29964 37451 37455 28
29965 37456 37457 28
29966 37456 37458 28
29967 37456 37459 28
29968 37456 37460 28
29969 37461 37462 28
29970 37461 37463 28
29971 37461 37464 28
29972 37461 37465 28
29973 37466 37467 28
29974 37466 37468 28
29975 37466 37469 28
29976 37466 37470 28
29977 37471 37472 28
29978 37471 37473 28
29979 37471 37474 28
29980 37471 37475 28
29981 37476 37477 28
29982 37476 37478 28
29983 37476 37479 28
29984 37476 37480 28
29985 37481 37482 28
29986 37481 37483 28
29987 37481 37484 28
29988 37481 37485 28
29989 37486 37487 28
29990 37486 37488 28
29991 37486 37489 28
29992 37486 37490 28
29993 37491 37492 28
29994 37491 37493 28
29995 37491 37494 28
29996 37491 37495 28
29997 37496 37497 28
29998 37496 37498 28
29999 37496 37499 28
30000 37496 37500 28
@<TRIPOS>CRYSIN
122.6566255652103 122.6566255652103 122.6566255652103 90 90 90 1 1
